
  EPA STORM WATER MANAGEMENT MODEL - VERSION 5.1 (Build 5.3.0.dev0)
  --------------------------------------------------------------

  WARNING 04: minimum elevation drop used for Conduit WS02004404WS02004405
  WARNING 03: negative offset ignored for Link YS02001904YS02001907
  
  *********************************************************
  NOTE: The summary statistics displayed in this report are
  based on results found at every computational time step,  
  not just on results from each reporting time step.
  *********************************************************
  
  ****************
  Analysis Options
  ****************
  Flow Units ............... LPS
  Process Models:
    Rainfall/Runoff ........ YES
    RDII ................... NO
    Snowmelt ............... NO
    Groundwater ............ NO
    Flow Routing ........... YES
    Ponding Allowed ........ NO
    Water Quality .......... YES
  Infiltration Method ...... HORTON
  Flow Routing Method ...... DYNWAVE
  Surcharge Method ......... EXTRAN
  Starting Date ............ 08/28/2015 08:00:00
  Ending Date .............. 08/28/2015 15:50:00
  Antecedent Dry Days ...... 8.0
  Report Time Step ......... 00:01:00
  Wet Time Step ............ 00:01:00
  Dry Time Step ............ 00:01:00
  Routing Time Step ........ 5.00 sec
  Variable Time Step ....... YES
  Maximum Trials ........... 8
  Number of Threads ........ 4
  Head Tolerance ........... 0.001500 m
  
  
  **************************        Volume         Depth
  Runoff Quantity Continuity     hectare-m            mm
  **************************     ---------       -------
  Total Precipitation ......         5.556        12.164
  Evaporation Loss .........         0.000         0.000
  Infiltration Loss ........         1.002         2.194
  Surface Runoff ...........         3.688         8.075
  Final Storage ............         0.866         1.897
  Continuity Error (%) .....        -0.019
  
  
  **************************           COD            SS            TN            TP         NH4-N
  Runoff Quality Continuity             kg            kg            kg            kg            kg
  **************************    ----------    ----------    ----------    ----------    ----------
  Initial Buildup ..........     41378.656     70582.865      1804.177       168.684      1032.807
  Surface Buildup ..........        19.275        34.271         2.335         0.213         1.362
  Wet Deposition ...........         0.000         0.000         0.000         0.000         0.000
  Sweeping Removal .........         0.000         0.000         0.000         0.000         0.000
  Infiltration Loss ........        84.023       157.502         1.599         0.111         0.761
  BMP Removal ..............         0.000         0.000         0.000         0.000         0.000
  Surface Runoff ...........      3122.074      5752.154        60.620         4.098        28.771
  Remaining Buildup ........     38190.779     64705.500      1744.271       164.686      1004.628
  Continuity Error (%) .....         0.003         0.003         0.001         0.001         0.001
  
  
  **************************        Volume        Volume
  Flow Routing Continuity        hectare-m      10^6 ltr
  **************************     ---------     ---------
  Dry Weather Inflow .......         0.616         6.165
  Wet Weather Inflow .......         3.687        36.872
  Groundwater Inflow .......         0.000         0.000
  RDII Inflow ..............         0.000         0.000
  External Inflow ..........         0.102         1.024
  External Outflow .........         1.795        17.955
  Flooding Loss ............         2.181        21.807
  Evaporation Loss .........         0.000         0.000
  Exfiltration Loss ........         0.000         0.000
  Initial Stored Volume ....         0.076         0.761
  Final Stored Volume ......         0.619         6.195
  Continuity Error (%) .....        -2.536
  
  
  **************************           COD            SS            TN            TP         NH4-N
  Quality Routing Continuity            kg            kg            kg            kg            kg
  **************************    ----------    ----------    ----------    ----------    ----------
  Dry Weather Inflow .......      1541.201      2465.922       147.955        18.494        92.472
  Wet Weather Inflow .......      3121.365      5750.945        60.605         4.097        28.764
  Groundwater Inflow .......         0.000         0.000         0.000         0.000         0.000
  RDII Inflow ..............         0.000         0.000         0.000         0.000         0.000
  External Inflow ..........       183.418       293.469        17.608         2.201        11.005
  External Outflow .........      2172.347      3699.378       147.440        17.529        89.688
  Flooding Loss ............      1975.184      3605.729        51.232         4.444        26.923
  Exfiltration Loss ........         0.000         0.000         0.000         0.000         0.000
  Mass Reacted .............         0.000         0.000         0.000         0.000         0.000
  Initial Stored Mass ......         0.000         0.000         0.000         0.000         0.000
  Final Stored Mass ........       558.828       965.987        23.950         2.533        13.809
  Continuity Error (%) .....         2.881         2.811         1.568         1.156         1.377
  
  
  *************************
  Highest Continuity Errors
  *************************
  Node HS02004842 (14.53%)
  Node JK-storage (-11.35%)
  Node YS02001884 (10.71%)
  Node YSB1171 (2.74%)
  Node HS02004817 (2.73%)
  
  
  ***************************
  Time-Step Critical Elements
  ***************************
  Link WS02006252WS02006251 (54.88%)
  Link WS02006280WS02006229 (12.34%)
  Link WS02006238WS02006235 (8.99%)
  Link YS02006556YS02006558 (5.03%)
  Link YS02001793JiankangQianchi (3.70%)
  
  
  ********************************
  Highest Flow Instability Indexes
  ********************************
  Link WS02006113WS02006111 (51)
  Link YS02163601YS02164001 (46)
  Link YS02163301YS02001633 (45)
  Link YS02001629YS02163301 (44)
  Link YS02001619YS02001622 (43)
  
  
  *************************
  Routing Time Step Summary
  *************************
  Minimum Time Step           :     0.50 sec
  Average Time Step           :     1.45 sec
  Maximum Time Step           :     5.00 sec
  Percent in Steady State     :    -0.00
  Average Iterations per Step :     4.63
  Percent Not Converging      :    22.50
  
  
  ***************************
  Subcatchment Runoff Summary
  ***************************
  
  ------------------------------------------------------------------------------------------------------------------------------
                            Total      Total      Total      Total     Imperv       Perv      Total       Total     Peak  Runoff
                           Precip      Runon       Evap      Infil     Runoff     Runoff     Runoff      Runoff   Runoff   Coeff
  Subcatchment                 mm         mm         mm         mm         mm         mm         mm    10^6 ltr      LPS
  ------------------------------------------------------------------------------------------------------------------------------
  sub0                      12.16       0.00       0.00       0.65      11.27       0.20      11.47        0.01     1.99   0.943
  sub1                      12.16       0.00       0.00       1.12      10.73       0.22      10.95        0.07    14.96   0.900
  sub2                      12.16       0.00       0.00       4.23       7.58       0.27       7.85        0.07    15.08   0.646
  sub3                      12.16       0.00       0.00       4.29       7.54       0.21       7.75        0.17    34.61   0.637
  sub4                      12.16       0.00       0.00       1.19      10.57       0.14      10.71        0.22    42.34   0.881
  sub5                      12.16       0.00       0.00       0.69      11.21       0.16      11.38        0.13    26.18   0.935
  sub7                      12.16       0.00       0.00       0.88      11.01       0.22      11.22        0.04     7.95   0.923
  sub8                      12.16       0.00       0.00       0.89      11.00       0.21      11.20        0.07    14.89   0.921
  sub9                      12.16       0.00       0.00       0.89      10.99       0.21      11.20        0.05    11.18   0.921
  sub10                     12.16       0.00       0.00       0.79      11.10       0.18      11.28        0.12    25.49   0.928
  sub11                     12.16       0.00       0.00       0.78      11.12       0.19      11.31        0.13    27.35   0.930
  sub12                     12.16       0.00       0.00       1.27      10.53       0.31      10.85        0.09    20.52   0.892
  sub14                     12.16       0.00       0.00       0.89      10.99       0.20      11.20        0.11    22.08   0.920
  sub15                     12.16       0.00       0.00       3.28       8.45       0.37       8.82        0.15    32.49   0.725
  sub16                     12.16       0.00       0.00       3.51       8.11       0.50       8.61        0.09    20.36   0.708
  sub17                     12.16       0.00       0.00       3.41       8.23       0.48       8.71        0.07    16.72   0.716
  sub22                     12.16       0.00       0.00       4.80       6.89       0.43       7.32        0.46   102.62   0.602
  sub23                     12.16       0.00       0.00       4.05       7.62       0.45       8.07        0.38    85.35   0.663
  sub60                     12.16       0.00       0.00       1.42       8.82       0.04       8.86        2.69   336.84   0.729
  sub61                     12.16       0.00       0.00       2.01       8.94       0.06       9.00        2.78   399.45   0.740
  sub62                     12.16       0.00       0.00       0.92       9.73       0.05       9.78        3.01   415.79   0.804
  sub63                     12.16       0.00       0.00       3.46       7.82       0.06       7.88        2.39   361.21   0.648
  sub64                     12.16       0.00       0.00       1.78       8.47       0.04       8.51        2.59   320.97   0.699
  sub65                     12.16       0.00       0.00       1.54       8.61       0.04       8.65        2.66   326.54   0.711
  sub66                     12.16       0.00       0.00       3.49       7.26       0.04       7.30        2.24   290.53   0.600
  sub67                     12.16       0.00       0.00       0.91      10.24       0.07      10.31        3.18   494.23   0.848
  sub68                     12.16       0.00       0.00       1.64       9.40       0.06       9.46        2.91   432.52   0.778
  sub69                     12.16       0.00       0.00       1.73       9.72       0.09       9.82        2.29   383.95   0.807
  sub70                     12.16      10.02       0.00       6.98      13.09       0.56      13.65        3.12   394.93   0.615
  sub71                     12.16       0.00       0.00       0.93       9.48       0.05       9.53        2.25   296.34   0.783
  sub72                     12.16       0.00       0.00       0.83       7.62       0.02       7.64        1.56   151.13   0.628
  1                         12.16      13.29       0.00       1.37      14.64       3.94      18.57        4.36   399.24   0.730
  2                         12.16       0.00       0.00       3.02       2.89       1.65       4.55        1.82   245.52   0.374
  
  
  ****************************
  Subcatchment Washoff Summary
  ****************************
  
  ------------------------------------------------------------------------------------------
                                 COD            SS            TN            TP         NH4-N
  Subcatchment                    kg            kg            kg            kg            kg
  ------------------------------------------------------------------------------------------
  sub0                         2.176         4.147         0.037         0.003         0.018
  sub1                         9.268        18.138         0.173         0.012         0.083
  sub2                         5.563        10.570         0.119         0.008         0.054
  sub3                        13.747        25.918         0.288         0.019         0.132
  sub4                        21.530        42.606         0.429         0.026         0.205
  sub5                        21.300        41.103         0.378         0.029         0.183
  sub7                         4.748         9.424         0.090         0.006         0.043
  sub8                         7.142        14.500         0.143         0.008         0.069
  sub9                         6.100        12.212         0.118         0.007         0.057
  sub10                       17.532        34.266         0.321         0.023         0.155
  sub11                       17.086        33.770         0.320         0.022         0.154
  sub12                       14.392        27.890         0.260         0.019         0.125
  sub14                       13.021        25.823         0.247         0.016         0.119
  sub15                       16.182        30.744         0.313         0.023         0.146
  sub16                       10.318        19.555         0.197         0.015         0.092
  sub17                        9.471        17.789         0.175         0.014         0.082
  sub22                       48.821        90.813         0.932         0.070         0.434
  sub23                       29.138        56.181         0.627         0.041         0.287
  sub60                      203.703       376.194         4.083         0.248         1.956
  sub61                      251.300       461.579         4.699         0.320         2.261
  sub62                      262.762       491.326         5.157         0.324         2.474
  sub63                      185.047       334.594         3.739         0.261         1.731
  sub64                      253.867       452.095         4.687         0.339         2.235
  sub65                      260.106       465.192         4.834         0.344         2.309
  sub66                      146.558       263.078         3.037         0.197         1.417
  sub67                      388.205       718.566         6.963         0.510         3.363
  sub68                      276.714       513.393         5.318         0.356         2.539
  sub69                      247.676       464.012         4.658         0.325         2.225
  sub70                      413.256       778.342         8.287         0.572         3.877
  sub71                      173.740       327.842         3.597         0.206         1.720
  sub72                      136.329       239.316         2.558         0.174         1.230
  1                          280.724       531.718         5.751         0.398         2.660
  2                           35.485        61.812         1.030         0.062         0.437
  ------------------------------------------------------------------------------------------
  System                    3783.006      6994.507        73.566         4.996        34.873
  
  
  ******************
  Node Depth Summary
  ******************
  
  ---------------------------------------------------------------------------------
                                 Average  Maximum  Maximum  Time of Max    Reported
                                   Depth    Depth      HGL   Occurrence   Max Depth
  Node                 Type       Meters   Meters   Meters  days hr:min      Meters
  ---------------------------------------------------------------------------------
  WS02001211           JUNCTION     0.76     0.83     5.67     0  03:09        0.83
  WS02001212           JUNCTION     0.47     0.55     5.62     0  03:08        0.55
  WS02001213           JUNCTION     0.71     0.82     5.59     0  03:08        0.82
  WS02003069           JUNCTION     0.50     0.68     5.26     0  03:07        0.68
  WS02003072           JUNCTION     0.56     0.73     5.10     0  03:07        0.73
  WS02003073           JUNCTION     0.34     0.45     4.52     0  03:08        0.45
  WS02003060           JUNCTION     0.44     0.60     5.53     0  03:06        0.60
  WS02003066           JUNCTION     0.24     0.36     5.92     0  03:05        0.36
  WS02003059           JUNCTION     0.76     0.88     5.57     0  03:07        0.88
  WS02003067           JUNCTION     0.57     0.79     6.11     0  03:05        0.79
  WS02004401           JUNCTION     0.69     1.14     7.14     0  03:02        1.13
  WS02004402           JUNCTION     0.72     1.14     7.10     0  03:03        1.13
  WS02004403           JUNCTION     0.74     1.12     7.05     0  03:02        1.12
  WS02004404           JUNCTION     0.81     1.18     7.03     0  03:02        1.17
  WS02004406           JUNCTION     0.81     1.12     6.95     0  03:03        1.12
  WS02004409           JUNCTION     0.50     0.87     6.64     0  03:04        0.87
  WS02004410           JUNCTION     0.52     0.87     6.59     0  03:04        0.87
  WS02004411           JUNCTION     0.54     0.86     6.54     0  03:04        0.86
  WS02004412           JUNCTION     0.55     0.84     6.48     0  03:05        0.84
  WS02004413           JUNCTION     0.70     0.98     6.45     0  03:05        0.98
  WS02004405           JUNCTION     0.80     1.15     7.00     0  03:03        1.15
  WS02006109           JUNCTION     0.78     1.31     7.93     0  03:02        1.30
  WS02006110           JUNCTION     0.76     1.15     7.73     0  03:03        1.15
  WS02006111           JUNCTION     0.23     0.66     7.36     0  03:03        0.66
  WS02006112           JUNCTION     0.86     1.42     7.30     0  03:03        1.41
  WS02006113           JUNCTION     0.35     0.65     7.54     0  03:02        0.65
  WS02006115           JUNCTION     0.59     1.09     7.23     0  03:03        1.09
  WS02006116           JUNCTION     0.67     1.15     7.19     0  03:03        1.14
  WS02006230           JUNCTION     0.77     1.52     8.26     0  03:02        1.51
  WS02006231           JUNCTION     0.52     1.22     8.34     0  03:03        1.21
  WS02006232           JUNCTION     0.65     1.36     8.40     0  03:01        1.35
  WS02006234           JUNCTION     0.58     1.32     8.48     0  03:02        1.31
  WS02006235           JUNCTION     0.61     1.37     8.53     0  03:02        1.36
  WS02006238           JUNCTION     0.63     1.39     8.54     0  03:02        1.38
  WS02006240           JUNCTION     0.52     1.28     8.57     0  03:02        1.27
  WS02006242           JUNCTION     0.56     1.33     8.60     0  03:02        1.32
  WS02006243           JUNCTION     0.44     1.21     8.63     0  03:02        1.20
  WS02006245           JUNCTION     0.41     1.17     8.66     0  03:02        1.16
  WS02006247           JUNCTION     0.41     1.17     8.67     0  03:02        1.16
  WS02006248           JUNCTION     0.35     1.09     8.68     0  03:02        1.09
  WS02006249           JUNCTION     0.37     1.09     8.69     0  02:59        1.09
  WS02006239           JUNCTION     0.58     1.35     8.56     0  03:01        1.33
  WS02006251           JUNCTION     0.34     1.53     9.20     0  03:18        1.13
  WS02006252           JUNCTION     0.22     1.05     9.29     0  03:18        0.69
  WS02006253           JUNCTION     0.37     1.49     9.13     0  03:18        1.16
  WS02006256           JUNCTION     1.76     2.35     9.28     0  01:08        2.35
  WS02004138           JUNCTION     0.19     0.20     7.45     0  00:00        0.19
  WS02004139           JUNCTION     0.71     0.77     5.68     0  03:09        0.77
  WS02004407           JUNCTION     0.23     0.37     6.68     0  03:03        0.37
  WS02006228           JUNCTION     0.79     1.44     8.09     0  03:02        1.44
  WS02006229           JUNCTION     0.77     1.49     8.18     0  03:02        1.48
  WS02006280           JUNCTION     0.08     0.20     8.47     0  03:02        0.20
  WS02006284           JUNCTION     0.38     0.56     8.96     0  03:02        0.56
  WS02006287           JUNCTION     0.11     0.30     9.25     0  03:01        0.30
  WSF200               JUNCTION     0.22     0.40     5.64     0  03:05        0.40
  HS02004901           JUNCTION     0.14     0.29    10.12     0  03:01        0.29
  HS02004881           JUNCTION     0.01     0.04     9.07     0  03:01        0.04
  HS02004876           JUNCTION     0.05     0.12     9.15     0  03:01        0.12
  HS02004870           JUNCTION     0.02     0.07     9.35     0  03:01        0.07
  HS02004862           JUNCTION     0.02     0.08     9.46     0  03:01        0.08
  HS02004856           JUNCTION     0.08     0.13     9.55     0  03:01        0.13
  HS02004852           JUNCTION     0.01     0.05     9.56     0  03:01        0.05
  HS02004848           JUNCTION     0.01     0.05     9.65     0  03:01        0.05
  HS02004842           JUNCTION     0.34     0.38     9.65     0  03:01        0.38
  HS02004837           JUNCTION     0.03     0.07     9.65     0  03:01        0.07
  HS02004830           JUNCTION     0.04     0.08     9.55     0  03:01        0.08
  HS02004824           JUNCTION     0.03     0.06     9.47     0  03:01        0.06
  HS02004817           JUNCTION     0.45     0.61     9.45     0  03:01        0.61
  HS02004807           JUNCTION     0.13     0.28     9.45     0  03:01        0.28
  HS02004802           JUNCTION     0.17     0.31     9.44     0  03:01        0.31
  HS02004799           JUNCTION     0.13     0.35     9.56     0  03:01        0.35
  HS02004792           JUNCTION     0.04     0.15     9.67     0  03:01        0.15
  HS02004788           JUNCTION     0.03     0.11    10.01     0  03:01        0.11
  HS02004785           JUNCTION     0.06     0.18    10.09     0  03:01        0.18
  HS02004777           JUNCTION     0.16     0.31    10.11     0  03:01        0.31
  HS02004770           JUNCTION     0.13     0.29    10.12     0  03:01        0.29
  HS02004480           JUNCTION     0.09     0.28     9.52     0  03:01        0.28
  HS02004479           JUNCTION     0.13     0.32     9.52     0  03:01        0.32
  HS02004478           JUNCTION     0.07     0.20     9.42     0  03:01        0.20
  YS02001745           JUNCTION     0.72     0.92     8.44     0  03:01        0.92
  YS02001748           JUNCTION     1.11     1.59     8.67     0  02:28        1.35
  YS02001751           JUNCTION     1.29     1.58     8.46     0  02:28        1.55
  YS02001754           JUNCTION     1.54     1.83     8.44     0  02:58        1.82
  YS02001762           JUNCTION     1.74     2.04     8.44     0  02:58        2.02
  YS02001765           JUNCTION     1.69     1.99     8.44     0  02:58        1.96
  YS02001767           JUNCTION     1.66     1.94     8.43     0  02:58        1.92
  YS02001770           JUNCTION     1.65     1.92     8.42     0  02:58        1.91
  YS02001774           JUNCTION     1.72     1.98     8.40     0  02:58        1.97
  YS02001779           JUNCTION     1.47     1.68     8.37     0  02:36        1.68
  YS02001882           JUNCTION     0.59     1.62     8.34     0  02:59        1.61
  YS02001884           JUNCTION     0.68     1.72     8.34     0  03:00        1.71
  YS02001759           JUNCTION     1.78     2.08     8.44     0  02:58        2.05
  YS02001887           JUNCTION     0.76     1.80     8.33     0  02:59        1.79
  YS02001890           JUNCTION     0.79     1.81     8.32     0  02:57        1.81
  YS02001898           JUNCTION     0.56     1.56     8.29     0  02:57        1.55
  YS02001901           JUNCTION     0.67     1.67     8.28     0  03:00        1.67
  YS02001904           JUNCTION     0.65     1.64     8.27     0  02:58        1.63
  YS02001907           JUNCTION     0.98     1.96     8.25     0  02:44        1.96
  YS02001910           JUNCTION     0.77     1.78     8.28     0  02:46        1.77
  YS02001915           JUNCTION     0.57     1.59     8.30     0  02:46        1.56
  YS02001918           JUNCTION     0.31     1.26     8.32     0  02:46        1.24
  YS02001619           JUNCTION     1.26     1.57     8.50     0  02:28        1.48
  YS02001629           JUNCTION     1.60     1.85     8.40     0  02:28        1.84
  YS02001641           JUNCTION     1.70     1.93     8.37     0  02:59        1.93
  YS02001644           JUNCTION     1.70     1.92     8.35     0  02:34        1.92
  YS02001652           JUNCTION     1.56     2.16     8.76     0  03:50        1.90
  YS02001655           JUNCTION     1.32     2.20     9.05     0  02:19        1.74
  YS02001920           JUNCTION     0.41     1.32     8.33     0  02:46        1.32
  YS02001923           JUNCTION     0.24     1.08     8.34     0  02:46        1.07
  YS02001926           JUNCTION     0.29     0.91     8.35     0  02:46        0.89
  YS02001929           JUNCTION     0.17     0.68     8.37     0  02:45        0.68
  YS02001658           JUNCTION     1.06     1.96     9.10     0  03:50        1.54
  YS02001661           JUNCTION     0.83     2.28     9.69     0  03:57        1.38
  YS02001664           JUNCTION     0.37     0.57     8.49     0  04:11        0.56
  YS02001622           JUNCTION     1.28     1.57     8.47     0  02:28        1.50
  YS02001633           JUNCTION     1.70     1.94     8.40     0  02:48        1.94
  YS02001649           JUNCTION     1.75     2.05     8.44     0  02:38        2.05
  YS02001757           JUNCTION     1.87     2.18     8.44     0  02:58        2.16
  YS02001895           JUNCTION     0.55     1.56     8.31     0  03:00        1.55
  YS02001625           JUNCTION     1.56     1.78     8.38     0  02:27        1.78
  YS02163301           JUNCTION     1.63     1.88     8.40     0  03:19        1.88
  YS02163601           JUNCTION     1.75     1.99     8.39     0  02:36        1.99
  YS02164001           JUNCTION     1.68     1.92     8.38     0  02:35        1.92
  YS02001647           JUNCTION     1.54     1.80     8.41     0  02:39        1.79
  YSB1154              JUNCTION     0.27     0.47     9.52     0  03:01        0.47
  YSB6556              JUNCTION     0.16     0.35     9.52     0  03:01        0.35
  YSB1174              JUNCTION     0.22     0.41     9.52     0  03:01        0.41
  YSB1171              JUNCTION     0.42     0.62     9.52     0  03:01        0.62
  YS02006553           JUNCTION     0.98     1.96     8.25     0  03:01        1.96
  YS02006561           JUNCTION     0.34     1.08     7.74     0  02:48        1.07
  YS02006556           JUNCTION     0.95     1.92     8.23     0  02:58        1.92
  YS02006558           JUNCTION     0.99     1.96     8.23     0  03:01        1.95
  YS02001783           JUNCTION     0.55     2.03     8.17     0  02:34        1.46
  YS02001784           JUNCTION     0.56     1.85     7.92     0  02:34        1.40
  YS02001786           JUNCTION     0.49     1.82     7.85     0  02:34        1.25
  YS02001788           JUNCTION     0.41     1.56     7.54     0  02:34        1.12
  YS02001790           JUNCTION     0.51     1.74     7.38     0  02:33        1.29
  YS02001791           JUNCTION     0.45     1.56     7.03     0  02:34        1.27
  YS02001793           JUNCTION     0.57     1.95     6.78     0  02:34        1.80
  WSC                  OUTFALL      0.34     0.45     1.12     0  03:08        0.45
  JK-storage           STORAGE      2.54     5.80     6.60     0  02:01        5.80
  CC-storage           STORAGE      1.13     1.42     8.42     0  03:11        1.42
  XR-storage           STORAGE      6.51     7.72     5.72     0  02:52        7.72
  
  
  *******************
  Node Inflow Summary
  *******************
  
  -------------------------------------------------------------------------------------------------
                                  Maximum  Maximum                  Lateral       Total        Flow
                                  Lateral    Total  Time of Max      Inflow      Inflow     Balance
                                   Inflow   Inflow   Occurrence      Volume      Volume       Error
  Node                 Type           LPS      LPS  days hr:min    10^6 ltr    10^6 ltr     Percent
  -------------------------------------------------------------------------------------------------
  WS02001211           JUNCTION      7.35   391.07     0  03:14       0.207          10       0.392
  WS02001212           JUNCTION      0.00   394.49     0  03:14           0        9.99       0.243
  WS02001213           JUNCTION      0.00   397.57     0  03:14           0        9.96       0.259
  WS02003069           JUNCTION      0.32  1216.36     0  03:07     0.00902          18       0.149
  WS02003072           JUNCTION      0.00  1216.28     0  03:07           0          18       0.189
  WS02003073           JUNCTION      1.82  1218.28     0  03:08      0.0514          18       0.211
  WS02003060           JUNCTION     16.53  1215.83     0  03:06       0.466          18       0.141
  WS02003066           JUNCTION      0.00   828.22     0  03:05           0        7.66       0.034
  WS02003059           JUNCTION      0.00   401.64     0  03:14           0        9.94       0.381
  WS02003067           JUNCTION      0.00   827.88     0  03:05           0        7.66       0.078
  WS02004401           JUNCTION      0.00   831.74     0  03:03           0         7.8       0.165
  WS02004402           JUNCTION      0.00   832.71     0  03:03           0        7.79       0.164
  WS02004403           JUNCTION      0.00   832.26     0  03:03           0        7.78       0.158
  WS02004404           JUNCTION      0.16   832.64     0  03:03     0.00457        7.77       0.113
  WS02004406           JUNCTION      0.00   832.02     0  03:03           0        7.75       0.307
  WS02004409           JUNCTION      0.00   831.44     0  03:03           0        7.72       0.089
  WS02004410           JUNCTION      0.00   829.28     0  03:04           0        7.71       0.117
  WS02004411           JUNCTION      0.00   828.21     0  03:04           0        7.71       0.132
  WS02004412           JUNCTION      0.00   827.81     0  03:04           0         7.7       0.157
  WS02004413           JUNCTION      0.00   827.81     0  03:05           0        7.68       0.258
  WS02004405           JUNCTION      0.04   832.56     0  03:03     0.00107        7.76       0.182
  WS02006109           JUNCTION      1.23   818.86     0  03:02      0.0347        7.79       0.135
  WS02006110           JUNCTION      0.00   818.65     0  03:02           0        7.78       0.136
  WS02006111           JUNCTION      0.00   817.76     0  03:03           0        7.77       0.012
  WS02006112           JUNCTION     16.72   831.13     0  03:03      0.0747        7.84       0.219
  WS02006113           JUNCTION      0.00   818.80     0  03:02           0        7.77       0.038
  WS02006115           JUNCTION      0.00   831.14     0  03:03           0        7.82       0.149
  WS02006116           JUNCTION      0.00   831.47     0  03:03           0        7.81       0.106
  WS02006230           JUNCTION     10.28   518.22     0  04:54        0.29        5.61       0.111
  WS02006231           JUNCTION      0.00   507.95     0  04:54           0        5.31      -0.044
  WS02006232           JUNCTION      0.00   507.94     0  04:54           0        5.32       0.122
  WS02006234           JUNCTION      0.00   507.91     0  04:54           0        5.32      -0.063
  WS02006235           JUNCTION      0.00   507.84     0  04:54           0        5.46       0.115
  WS02006238           JUNCTION      0.00   309.20     0  04:54           0        2.18       0.027
  WS02006240           JUNCTION      0.00   309.10     0  04:54           0        2.06       0.017
  WS02006242           JUNCTION      0.00   309.05     0  04:54           0        2.01       0.045
  WS02006243           JUNCTION      0.00   309.00     0  04:54           0        1.97       0.063
  WS02006245           JUNCTION      0.00   329.37     0  04:50           0        1.96       0.191
  WS02006247           JUNCTION      0.00   351.74     0  04:51           0        1.96       0.045
  WS02006248           JUNCTION      0.00   365.89     0  04:50           0        1.95      -0.053
  WS02006249           JUNCTION      0.00   430.96     0  03:20           0        1.98       0.070
  WS02006239           JUNCTION      0.00   309.17     0  04:54           0        2.12      -0.023
  WS02006251           JUNCTION      0.08   428.60     0  03:20     0.00217        2.02      -0.022
  WS02006252           JUNCTION      0.00   399.99     0  03:20           0        1.56       0.011
  WS02006253           JUNCTION      1.99   126.85     0  05:20     0.00929       0.458      -0.070
  WS02006256           JUNCTION      0.00   983.00     0  02:10           0        9.54       0.012
  WS02004138           JUNCTION      0.00   380.00     0  00:00           0        9.86       0.069
  WS02004139           JUNCTION      0.32   394.45     0  00:00     0.00905        9.86       0.453
  WS02004407           JUNCTION      0.00   831.57     0  03:03           0        7.72       0.036
  WS02006228           JUNCTION      0.00   817.89     0  03:02           0        7.76       0.087
  WS02006229           JUNCTION      0.00   818.76     0  03:01           0        7.77       0.093
  WS02006280           JUNCTION      0.00   413.66     0  03:02           0        2.17       0.005
  WS02006284           JUNCTION      0.10   413.60     0  03:02      0.0027        2.17       0.040
  WS02006287           JUNCTION      0.00   413.26     0  03:01           0        2.17       0.033
  WSF200               JUNCTION      0.00   828.34     0  03:05           0        7.66       0.027
  HS02004901           JUNCTION     20.36    20.36     0  03:01      0.0902      0.0904       1.991
  HS02004881           JUNCTION      7.95    84.19     0  03:01      0.0378        0.41       0.092
  HS02004876           JUNCTION     14.96    76.76     0  03:01      0.0728       0.373       0.148
  HS02004870           JUNCTION     14.89    62.15     0  03:01      0.0716         0.3       0.038
  HS02004862           JUNCTION     15.28    47.68     0  03:01      0.0788       0.229       0.077
  HS02004856           JUNCTION     11.18    32.72     0  03:01      0.0539       0.152       0.967
  HS02004852           JUNCTION      0.00    21.94     0  03:01           0      0.0979       0.059
  HS02004848           JUNCTION     34.61    34.61     0  03:01       0.174       0.174       0.029
  HS02004842           JUNCTION      0.00    12.41     0  03:01           0      0.0895      16.997
  HS02004837           JUNCTION     31.84    43.94     0  03:01       0.303        0.38       0.215
  HS02004830           JUNCTION      0.15    43.86     0  03:01     0.00423        0.37       0.334
  HS02004824           JUNCTION     42.39    85.90     0  03:01       0.225       0.594       0.092
  HS02004817           JUNCTION      0.60    86.29     0  03:01      0.0169        0.61       2.809
  HS02004807           JUNCTION     27.35   112.32     0  03:01       0.131       0.726       0.605
  HS02004802           JUNCTION      0.00   111.38     0  03:01           0       0.723       0.547
  HS02004799           JUNCTION     22.08   258.95     0  03:01       0.107        1.24       0.223
  HS02004792           JUNCTION    102.90   237.99     0  03:01        0.47        1.14       0.037
  HS02004788           JUNCTION     34.16   135.95     0  03:01       0.199       0.669       0.059
  HS02004785           JUNCTION      0.15   103.53     0  03:01     0.00423       0.471       0.105
  HS02004777           JUNCTION      0.03   104.16     0  03:01    0.000846       0.472       1.112
  HS02004770           JUNCTION     85.35   105.10     0  03:01       0.385       0.473       0.662
  HS02004480           JUNCTION      0.00   302.47     0  03:01           0        1.46       0.077
  HS02004479           JUNCTION      0.00    44.91     0  03:02           0       0.232       0.316
  HS02004478           JUNCTION      0.00   413.12     0  03:01           0        2.17       0.014
  YS02001745           JUNCTION    336.84   387.62     0  02:26        2.69         2.7       0.422
  YS02001748           JUNCTION      0.04   563.05     0  02:27     0.00127        2.69       0.775
  YS02001751           JUNCTION      0.01   370.61     0  02:17     0.00031        2.66       0.899
  YS02001754           JUNCTION      0.26   342.67     0  03:01     0.00733        2.64       0.954
  YS02001762           JUNCTION      0.00   290.23     0  02:38           0        1.85       1.164
  YS02001765           JUNCTION      0.00   290.88     0  02:38           0        1.85       1.322
  YS02001767           JUNCTION      0.54   291.16     0  02:38      0.0151        1.87       1.925
  YS02001770           JUNCTION    415.94   565.83     0  03:01        3.01        3.52       0.897
  YS02001774           JUNCTION      0.00   566.98     0  03:01           0        2.14       1.183
  YS02001779           JUNCTION      0.01   566.71     0  03:01    0.000141         2.1       0.733
  YS02001882           JUNCTION      0.00    34.85     0  02:35           0      0.0205      12.827
  YS02001884           JUNCTION      0.00    68.59     0  02:35           0      0.0578      11.989
  YS02001759           JUNCTION    399.49   572.35     0  02:38        2.78        4.09       0.563
  YS02001887           JUNCTION    494.68   494.71     0  03:01        3.19        3.23       0.265
  YS02001890           JUNCTION      0.00   495.09     0  03:01           0        3.18       0.295
  YS02001898           JUNCTION      0.00   494.83     0  03:01           0        3.16       0.098
  YS02001901           JUNCTION      0.00   495.77     0  03:01           0        3.16       0.225
  YS02001904           JUNCTION      0.00   495.44     0  03:01           0        3.16       0.206
  YS02001907           JUNCTION      0.00   942.29     0  03:01           0        7.02       0.343
  YS02001910           JUNCTION      0.00   449.42     0  03:00           0        3.87       0.304
  YS02001915           JUNCTION    296.36   449.23     0  03:00        2.25         3.9       0.162
  YS02001918           JUNCTION      0.00   208.25     0  03:31           0        1.65       0.117
  YS02001619           JUNCTION    290.53   290.53     0  03:01        2.24        2.24       0.545
  YS02001629           JUNCTION      0.00   215.28     0  02:17           0        1.69       1.739
  YS02001641           JUNCTION      0.00   396.55     0  02:29           0        4.25       0.495
  YS02001644           JUNCTION    321.01  1354.50     0  03:01        2.59          11       0.242
  YS02001652           JUNCTION      0.00   379.34     0  03:01           0        2.34       1.012
  YS02001655           JUNCTION      0.15   405.45     0  02:19     0.00434        2.37       1.017
  YS02001920           JUNCTION      2.87   203.58     0  02:46      0.0809        1.64       0.189
  YS02001923           JUNCTION      0.04   224.02     0  02:46     0.00106        1.56       0.052
  YS02001926           JUNCTION      0.05   169.74     0  02:46     0.00147        1.56       0.210
  YS02001929           JUNCTION    151.13   151.13     0  03:01        1.56        1.56       0.037
  YS02001658           JUNCTION      0.00   607.32     0  02:23           0        2.41       0.937
  YS02001661           JUNCTION      0.00   620.52     0  02:39           0        2.68      -0.294
  YS02001664           JUNCTION    361.21   361.21     0  03:01        2.38        2.66       0.253
  YS02001622           JUNCTION      0.00   291.13     0  03:01           0        2.22       1.441
  YS02001633           JUNCTION    326.74   396.39     0  02:35        2.66        4.31       0.752
  YS02001649           JUNCTION      0.00   829.34     0  02:35           0         6.2       0.600
  YS02001757           JUNCTION      0.00  1579.13     0  02:35           0        8.28       1.123
  YS02001895           JUNCTION      0.00   495.28     0  03:00           0        3.17       0.168
  YS02001625           JUNCTION      0.00   290.90     0  03:01           0        2.19       1.811
  YS02163301           JUNCTION      0.00   212.37     0  02:26           0        1.67       1.460
  YS02163601           JUNCTION      0.11   396.47     0  02:35      0.0031        4.27       0.706
  YS02164001           JUNCTION      0.00   396.15     0  02:35           0        4.25       0.477
  YS02001647           JUNCTION      0.00   667.80     0  03:12           0        5.47       0.518
  YSB1154              JUNCTION     26.18    26.18     0  03:01       0.129        0.13       1.132
  YSB6556              JUNCTION      0.00    25.83     0  03:01           0        0.13       0.970
  YSB1174              JUNCTION     20.52    20.52     0  03:01      0.0948      0.0953       1.371
  YSB1171              JUNCTION      0.00    45.31     0  03:01           0       0.231       2.818
  YS02006553           JUNCTION      0.00   703.71     0  03:31           0        6.56       0.238
  YS02006561           JUNCTION      0.00   982.38     0  02:59           0        9.44       0.009
  YS02006556           JUNCTION      0.00   703.51     0  03:31           0        6.57       0.173
  YS02006558           JUNCTION    433.40   983.52     0  03:00        2.93        9.47       0.055
  YS02001783           JUNCTION      0.00   982.73     0  02:59           0        9.44       0.025
  YS02001784           JUNCTION      1.06   983.53     0  03:00      0.0299        9.47       0.037
  YS02001786           JUNCTION      0.06   983.55     0  03:00     0.00159        9.47       0.035
  YS02001788           JUNCTION      0.07   983.75     0  03:00       0.002        9.47       0.022
  YS02001790           JUNCTION      0.15   984.03     0  03:00     0.00437        9.47      -0.003
  YS02001791           JUNCTION      0.00   983.88     0  03:00           0        9.47       0.016
  YS02001793           JUNCTION      0.00   984.13     0  03:00           0        9.47      -0.006
  WSC                  OUTFALL       0.00  1218.61     0  03:08           0          18       0.000
  JK-storage           STORAGE       0.00   983.99     0  02:59           0        9.62     -10.193
  CC-storage           STORAGE       0.00  1577.31     0  02:35           0        5.56       1.182
  XR-storage           STORAGE     844.76   844.76     0  03:01        11.8        12.4      -0.003
  
  
  **********************
  Node Surcharge Summary
  **********************
  
  Surcharging occurs when water rises above the top of the highest conduit.
  ---------------------------------------------------------------------
                                               Max. Height   Min. Depth
                                   Hours       Above Crown    Below Rim
  Node                 Type      Surcharged         Meters       Meters
  ---------------------------------------------------------------------
  WS02004401           JUNCTION        0.21          0.135        1.525
  WS02004402           JUNCTION        0.23          0.139        1.601
  WS02004403           JUNCTION        0.24          0.122        1.908
  WS02004404           JUNCTION        0.61          0.179        2.601
  WS02004406           JUNCTION        0.43          0.116        2.334
  WS02004405           JUNCTION        0.50          0.153        2.647
  WS02006109           JUNCTION        2.44          0.490        1.330
  WS02006110           JUNCTION        1.05          0.238        1.612
  WS02006112           JUNCTION        1.33          0.417        1.263
  WS02006115           JUNCTION        0.13          0.080        2.170
  WS02006116           JUNCTION        0.14          0.086        2.204
  WS02006230           JUNCTION        0.64          0.440        1.130
  WS02006231           JUNCTION        0.87          0.506        1.024
  WS02006232           JUNCTION        2.15          0.662        0.818
  WS02006234           JUNCTION        1.32          0.600        0.640
  WS02006235           JUNCTION        1.61          0.660        0.630
  WS02006238           JUNCTION        1.68          0.672        0.758
  WS02006240           JUNCTION        1.06          0.570        0.820
  WS02006242           JUNCTION        1.15          0.603        0.217
  WS02006243           JUNCTION        0.78          0.499        0.271
  WS02006245           JUNCTION        0.68          0.460        0.390
  WS02006247           JUNCTION        0.67          0.460        0.300
  WS02006248           JUNCTION        0.54          0.375        0.005
  WS02006249           JUNCTION        0.58          0.390        0.000
  WS02006239           JUNCTION        1.26          0.608        0.682
  WS02006251           JUNCTION        0.15          0.504        0.676
  WS02006252           JUNCTION        0.56          0.653        0.447
  WS02006253           JUNCTION        0.17          0.447        2.033
  WS02006256           JUNCTION        6.78          2.050        0.000
  WS02006228           JUNCTION        2.41          0.614        1.586
  YS02001748           JUNCTION        5.31          0.512        0.678
  YS02001751           JUNCTION        5.49          0.577        0.623
  YS02001754           JUNCTION        5.69          0.781        0.369
  YS02001762           JUNCTION        5.87          1.038        0.112
  YS02001765           JUNCTION        5.84          0.989        0.111
  YS02001767           JUNCTION        5.81          0.940        0.090
  YS02001770           JUNCTION        5.80          0.893        0.027
  YS02001774           JUNCTION        5.86          0.981        0.069
  YS02001779           JUNCTION        5.68          0.680        0.000
  YS02001882           JUNCTION        0.91          0.625        0.205
  YS02001884           JUNCTION        0.93          0.662        0.208
  YS02001759           JUNCTION        5.89          1.077        0.133
  YS02001887           JUNCTION        1.00          0.747        0.203
  YS02001890           JUNCTION        1.02          0.760        0.000
  YS02001898           JUNCTION        0.87          0.528        0.212
  YS02001901           JUNCTION        0.97          0.674        0.196
  YS02001904           JUNCTION        0.94          0.639        0.211
  YS02001907           JUNCTION        1.76          0.950        0.000
  YS02001910           JUNCTION        1.07          0.778        0.322
  YS02001915           JUNCTION        0.89          0.587        0.413
  YS02001918           JUNCTION        0.71          0.256        0.554
  YS02001619           JUNCTION        5.47          0.572        0.038
  YS02001629           JUNCTION        5.47          0.470        0.000
  YS02001641           JUNCTION        5.85          0.935        0.165
  YS02001644           JUNCTION        5.85          0.920        0.000
  YS02001652           JUNCTION        5.73          1.130        0.000
  YS02001655           JUNCTION        5.50          1.200        0.000
  YS02001920           JUNCTION        0.74          0.324        0.816
  YS02001658           JUNCTION        5.34          0.956        0.344
  YS02001661           JUNCTION        0.16          1.213        0.177
  YS02001622           JUNCTION        5.50          0.570        0.050
  YS02001633           JUNCTION        5.83          0.925        0.135
  YS02001649           JUNCTION        5.87          1.050        0.000
  YS02001757           JUNCTION        5.98          1.180        0.030
  YS02001895           JUNCTION        0.88          0.563        0.187
  YS02001625           JUNCTION        5.76          0.780        0.000
  YS02163301           JUNCTION        5.81          0.881        0.149
  YS02163601           JUNCTION        5.87          0.990        0.090
  YS02164001           JUNCTION        5.84          0.919        0.181
  YS02001647           JUNCTION        5.75          0.802        0.098
  YS02006553           JUNCTION        1.85          0.965        0.225
  YS02006561           JUNCTION        0.77          0.278        0.872
  YS02006556           JUNCTION        1.30          0.882        0.468
  YS02006558           JUNCTION        1.26          0.861        0.539
  YS02001783           JUNCTION        1.06          1.229        0.371
  YS02001784           JUNCTION        1.03          1.050        0.440
  YS02001786           JUNCTION        0.98          1.024        0.406
  YS02001788           JUNCTION        0.93          0.762        0.718
  YS02001790           JUNCTION        1.85          0.935        0.222
  YS02001791           JUNCTION        1.95          0.760        1.160
  YS02001793           JUNCTION        2.24          0.948        1.652
  
  
  *********************
  Node Flooding Summary
  *********************
  
  Flooding refers to all water that overflows a node, whether it ponds or not.
  --------------------------------------------------------------------------
                                                             Total   Maximum
                                 Maximum   Time of Max       Flood    Ponded
                        Hours       Rate    Occurrence      Volume     Depth
  Node                 Flooded       LPS   days hr:min    10^6 ltr    Meters
  --------------------------------------------------------------------------
  WS02006249              0.14    134.99      0  03:20       0.031     0.000
  WS02006256              3.64    810.41      0  03:02       6.160     0.000
  YS02001779              2.79    566.41      0  03:01       2.085     0.000
  YS02001890              0.01      0.87      0  03:00       0.000     0.000
  YS02001907              0.57    393.28      0  03:01       0.443     0.000
  YS02001629              0.01     11.72      0  02:28       0.000     0.000
  YS02001644              5.24   1354.33      0  03:01       9.688     0.000
  YS02001652              0.01      1.95      0  03:50       0.000     0.000
  YS02001655              0.01    200.63      0  02:20       0.000     0.000
  YS02001649              0.03     29.26      0  03:56       0.001     0.000
  YS02001625              1.18    236.72      0  03:01       0.465     0.000
  JK-storage              0.88    819.75      0  02:40       1.003     0.000
  XR-storage              3.10    464.74      0  03:01       1.932     0.000
  
  
  **********************
  Storage Volume Summary
  **********************
  
  --------------------------------------------------------------------------------------------------
                         Average     Avg  Evap Exfil       Maximum     Max    Time of Max    Maximum
                          Volume    Pcnt  Pcnt  Pcnt        Volume    Pcnt     Occurrence    Outflow
  Storage Unit           1000 m3    Full  Loss  Loss       1000 m3    Full    days hr:min        LPS
  --------------------------------------------------------------------------------------------------
  JK-storage               0.128      44     0     0         0.291     100       0  02:01     983.00
  CC-storage               3.162      20     0     0         3.958      25       0  03:11     399.99
  XR-storage               0.781      84     0     0         0.926     100       0  02:52     380.00
  
  
  ***********************
  Outfall Loading Summary
  ***********************
  
  ---------------------------------------------------------------------------------------------------------------------------------
                         Flow       Avg       Max       Total         Total         Total         Total         Total         Total
                         Freq      Flow      Flow      Volume           COD            SS            TN            TP         NH4-N
  Outfall Node           Pcnt       LPS       LPS    10^6 ltr            kg            kg            kg            kg            kg
  ---------------------------------------------------------------------------------------------------------------------------------
  WSC                   99.99    734.23   1218.61      17.955      2172.460      3699.553       147.452        17.531        89.695
  ---------------------------------------------------------------------------------------------------------------------------------
  System                99.99    734.23   1218.61      17.955      2172.460      3699.553       147.452        17.531        89.695
  
  
  ********************
  Link Flow Summary
  ********************
  
  -----------------------------------------------------------------------------
                                 Maximum  Time of Max   Maximum    Max/    Max/
                                  |Flow|   Occurrence   |Veloc|    Full    Full
  Link                 Type          LPS  days hr:min     m/sec    Flow   Depth
  -----------------------------------------------------------------------------
  WS02003066WSF200     CONDUIT    828.34     0  03:05      2.94    0.14    0.30
  WS02006287WS02006284 CONDUIT    413.51     0  03:02      2.04    0.19    0.30
  WS02006284WS02006280 CONDUIT    413.66     0  03:02      2.28    0.17    0.28
  WS02006280WS02006229 CONDUIT    413.66     0  03:02      3.63    0.09    0.25
  WS02006229WS02006228 CONDUIT    817.89     0  03:02      1.63    2.71    1.00
  WS02006256WS02006235 CONDUIT    263.56     0  06:22      3.73    2.79    1.00
  WS02006253WS02006251 CONDUIT    125.58     0  05:20      0.60    0.38    1.00
  WS02006252WS02006251 CONDUIT    400.07     0  03:20      3.18    1.47    1.00
  WS02006251WS02006249 CONDUIT    430.96     0  03:20      1.12    1.24    1.00
  WS02006249WS02006248 CONDUIT    365.89     0  04:50      1.14    2.00    1.00
  WS02006248WS02006247 CONDUIT    351.74     0  04:51      1.08    0.77    1.00
  WS02006247WS02006245 CONDUIT    329.37     0  04:50      1.01    2.61    1.00
  WS02006245WS02006243 CONDUIT    309.00     0  04:54      1.03    0.91    1.00
  WS02006243WS02006242 CONDUIT    309.05     0  04:54      0.88    0.66    1.00
  WS02006242WS02006240 CONDUIT    309.10     0  04:54      0.80    1.23    1.00
  WS02006240WS02006239 CONDUIT    309.17     0  04:54      0.87    0.97    1.00
  WS02006239WS02006238 CONDUIT    309.20     0  04:54      0.80    0.99    1.00
  WS02006238WS02006235 CONDUIT    309.26     0  04:54      0.81    0.69    1.00
  WS02006235WS02006234 CONDUIT    507.91     0  04:54      1.32    5.36    1.00
  WS02006234WS02006232 CONDUIT    507.94     0  04:54      1.32    1.03    1.00
  WS02006232WS02006231 CONDUIT    507.95     0  04:54      1.32    1.06    1.00
  WS02006231WS02006230 CONDUIT    507.94     0  04:54      1.40    7.70    1.00
  WS02006230WS02006229 CONDUIT    519.00     0  04:55      1.35   11.55    1.00
  WS02006228WS02006109 CONDUIT    817.63     0  03:02      1.63    3.57    1.00
  WS02006116WS02004401 CONDUIT    831.74     0  03:03      1.06    1.15    1.00
  WS02006115WS02006116 CONDUIT    831.47     0  03:03      1.06    1.07    1.00
  WS02006113WS02006111 CONDUIT    817.76     0  03:03      2.61    0.98    0.81
  WS02006112WS02006115 CONDUIT    831.14     0  03:03      1.06    0.49    1.00
  WS02006111WS02006112 CONDUIT    818.75     0  03:03      1.73    0.39    0.90
  WS02006110WS02006113 CONDUIT    818.80     0  03:02      1.74    0.74    0.91
  WS02006109WS02006110 CONDUIT    818.65     0  03:02      1.63    1.57    1.00
  WS02004411WS02004412 CONDUIT    827.81     0  03:04      1.16    1.18    0.85
  WS02004401WS02004402 CONDUIT    832.71     0  03:03      1.06    1.00    1.00
  WS02004413WS02003067 CONDUIT    827.88     0  03:05      1.42    0.35    0.70
  WS02004412WS02004413 CONDUIT    827.81     0  03:05      1.10    0.55    0.91
  WS02004410WS02004411 CONDUIT    828.21     0  03:04      1.15    1.13    0.86
  WS02004409WS02004410 CONDUIT    829.28     0  03:04      1.15    1.07    0.87
  WS02004407WS02004409 CONDUIT    831.44     0  03:03      1.64    0.29    0.62
  WS02004406WS02004407 CONDUIT    831.57     0  03:03      1.45    0.37    0.69
  WS02004405WS02004406 CONDUIT    832.02     0  03:03      1.06    1.64    1.00
  WS02004404WS02004405 CONDUIT    832.53     0  03:03      1.06    8.16    1.00
  WS02004403WS02004404 CONDUIT    832.48     0  03:03      1.06    0.60    1.00
  WS02004402WS02004403 CONDUIT    832.26     0  03:03      1.06    1.20    1.00
  WS02004139WS02001211 CONDUIT    383.72     0  03:14      0.90    0.48    0.63
  WS02004138WS02004139 CONDUIT    394.13     0  00:00      3.62    0.08    0.46
  WS02003067WS02003066 CONDUIT    828.22     0  03:05      1.54    0.27    0.48
  WS02001213WS02003059 CONDUIT    401.64     0  03:14      0.89    0.66    0.84
  WS02001212WS02001213 CONDUIT    397.57     0  03:14      1.32    0.61    0.53
  WS02001211WS02001212 CONDUIT    394.49     0  03:14      0.78    0.30    0.69
  WS02003072WS02003073 CONDUIT   1216.46     0  03:08      1.90    2.63    0.55
  WS02003069WS02003072 CONDUIT   1216.28     0  03:07      1.76    0.59    0.59
  WS02003060WS02003069 CONDUIT   1216.04     0  03:07      1.98    0.48    0.53
  WS02003059WS02003060 CONDUIT    407.11     0  03:13      0.95    0.27    0.74
  HS02004901HS02004770 CONDUIT     20.53     0  03:01      0.07    0.08    0.42
  HS02004876HS02004881 CONDUIT     76.55     0  03:01      0.95    0.81    0.12
  HS02004870HS02004876 CONDUIT     61.91     0  03:01      0.65    0.04    0.14
  HS02004842HS02004848 CONDUIT     12.41     0  03:01      0.06    0.01    0.31
  HS02004837HS02004842 CONDUIT     12.98     0  03:02      0.42    0.01    0.32
  HS02004830HS02004837 CONDUIT     43.71     0  03:01      0.57    0.04    0.11
  HS02004824HS02004830 CONDUIT     43.67     0  03:01      0.59    0.06    0.11
  HS02004817HS02004824 CONDUIT     85.69     0  03:01      0.26    0.04    0.48
  HS02004770HS02004777 CONDUIT    104.13     0  03:01      0.35    0.19    0.43
  HS02004799HS02004480 CONDUIT    258.32     0  03:01      0.83    0.33    0.44
  HS02004792HS02004799 CONDUIT    237.07     0  03:01      0.95    0.15    0.36
  HS02004788HS02004792 CONDUIT    135.44     0  03:01      1.06    0.09    0.18
  HS02004785HS02004788 CONDUIT    103.22     0  03:02      0.71    0.78    0.21
  HS02004777HS02004785 CONDUIT    103.38     0  03:01      0.42    0.13    0.35
  HS02004480HS02004478 CONDUIT    302.32     0  03:01      1.26    1.27    0.34
  HS02004479HS02004480 CONDUIT     46.30     0  03:02      0.32    0.04    0.43
  HS02004862HS02004870 CONDUIT     47.43     0  03:01      0.66    0.05    0.10
  HS02004848HS02004852 CONDUIT     21.94     0  03:01      0.45    0.02    0.07
  HS02004856HS02004862 CONDUIT     32.48     0  03:01      0.48    0.03    0.10
  HS02004852HS02004856 CONDUIT     21.86     0  03:02      0.25    0.02    0.13
  HS02004802HS02004478 CONDUIT    111.53     0  03:02      0.45    0.10    0.36
  HS02004478WS02006287 CONDUIT    413.26     0  03:01      1.75    0.12    0.26
  HS02004817HS02004807 CONDUIT     86.14     0  03:01      0.19    0.05    0.63
  HS02004807HS02004802 CONDUIT    111.38     0  03:01      0.38    0.21    0.42
  YS02001759YS02001757 CONDUIT    573.01     0  02:38      0.73    0.41    1.00
  YS02001762YS02001759 CONDUIT    290.16     0  02:38      0.37    0.33    1.00
  YS02001765YS02001762 CONDUIT    290.23     0  02:38      0.37    0.27    1.00
  YS02001770YS02001767 CONDUIT    290.62     0  02:38      0.37    1.15    1.00
  YS02001774YS02001770 CONDUIT    566.98     0  03:01      0.72    0.36    1.00
  YS02001779YS02001774 CONDUIT    566.70     0  03:01      0.72    0.29    1.00
  YS02001649YS02001757 CONDUIT    830.63     0  02:35      1.06    0.50    1.00
  YS02001767YS02001765 CONDUIT    290.88     0  02:38      0.37    0.37    1.00
  YS02006561YS02001783 CONDUIT    982.73     0  02:59      2.15    0.51    1.00
  YS02001783YS02001784 CONDUIT    982.47     0  03:00      1.95    1.35    1.00
  YS02001784YS02001785 CONDUIT    983.49     0  03:00      1.96    2.29    1.00
  YS02001788YS02001790 CONDUIT    983.87     0  03:00      2.44    0.73    1.00
  YS02001790YS02001791 CONDUIT    983.88     0  03:00      2.89    1.07    1.00
  YS02001791YS02001793 CONDUIT    984.13     0  03:00      5.78    0.42    1.00
  YS02001910YS02001907 CONDUIT    449.47     0  03:00      0.57    0.25    1.00
  YS02001786YS02001788 CONDUIT    983.68     0  03:00      2.31    1.90    1.00
  YS02001915YS02001910 CONDUIT    449.42     0  03:00      0.59    0.22    1.00
  YS02001918YS02001915 CONDUIT    246.46     0  03:31      0.44    0.14    1.00
  YS02001923YS02001920 CONDUIT    200.71     0  02:46      0.72    0.09    1.00
  YS02001926YS02001923 CONDUIT    223.98     0  02:46      0.83    0.32    0.89
  YS02001929YS02001926 CONDUIT    169.69     0  02:46      0.89    0.08    0.78
  YS02001920YS02001918 CONDUIT    208.25     0  03:31      0.69    0.20    1.00
  YS02001629YS02163301 CONDUIT    212.37     0  02:26      0.27    0.26    1.00
  YS02001619YS02001622 CONDUIT    291.13     0  03:01      0.61    0.43    1.00
  YS02001622YS02001625 CONDUIT    290.90     0  03:01      0.37    0.16    1.00
  YS02001625YS02001629 CONDUIT    215.28     0  02:17      0.28    0.10    1.00
  YS02163301YS02001633 CONDUIT    213.67     0  02:26      0.27    0.20    1.00
  YS02163601YS02164001 CONDUIT    396.15     0  02:35      0.50    0.35    1.00
  YS02164001YS02001641 CONDUIT    396.55     0  02:29      0.50    0.54    1.00
  YS02001641YS02001644 CONDUIT    401.20     0  02:26      0.51    1.30    1.00
  YS02001647YS02001649 CONDUIT    667.80     0  03:12      0.85    0.35    1.00
  YS02006553YS02006556 CONDUIT    703.51     0  03:31      0.90    0.60    1.00
  YS02006556YS02006558 CONDUIT    704.39     0  03:31      0.90    0.56    1.00
  YSB6556YSB1171       CONDUIT     25.76     0  03:03      0.09    0.03    0.70
  YS02001907YS02006553 CONDUIT    703.71     0  03:31      0.78    0.83    1.00
  YS02006558YS02006561 CONDUIT    982.38     0  02:59      3.47    2.17    1.00
  YS02001633YS02163601 CONDUIT    396.36     0  02:35      0.50    0.42    1.00
  YS02001644YS02001647 CONDUIT    667.82     0  03:12      0.85    0.39    1.00
  YS02001745YS02001748 CONDUIT    563.01     0  02:27      1.47    0.22    0.96
  YS02001748YS02001751 CONDUIT    370.60     0  02:17      1.06    0.19    1.00
  YS02001751YS02001754 CONDUIT    342.41     0  03:01      0.92    0.17    1.00
  YS02001754YS02001757 CONDUIT    343.06     0  03:01      0.44    0.14    1.00
  YS02001882YS02001884 CONDUIT     34.85     0  02:35      0.13    0.04    1.00
  YS02001884YS02001887 CONDUIT     68.59     0  02:35      0.09    0.09    1.00
  YS02001890YS02001895 CONDUIT    495.28     0  03:00      0.63    0.23    1.00
  YS02001895YS02001898 CONDUIT    494.83     0  03:01      0.63    0.86    1.00
  YS02001898YS02001901 CONDUIT    495.77     0  03:01      0.63    0.32    1.00
  YS02001901YS02001904 CONDUIT    495.44     0  03:01      0.63    0.77    1.00
  YS02001904YS02001907 CONDUIT    495.48     0  03:01      0.63    0.17    1.00
  YS02001887YS02001890 CONDUIT    495.09     0  03:01      0.63    0.85    1.00
  YS02001652YS02001649 CONDUIT    380.98     0  03:01      0.63    0.19    1.00
  YS02001655YS02001652 CONDUIT    379.34     0  03:01      0.98    0.18    1.00
  YS02001658YS02001655 CONDUIT    405.30     0  02:19      1.22    0.17    1.00
  YS02001661YS02001658 CONDUIT    607.32     0  02:23      1.55    0.24    1.00
  YS02001664YS02001661 CONDUIT    620.52     0  02:39      1.43    0.19    0.76
  YSB1154YSB6556       CONDUIT     25.83     0  03:01      0.17    0.05    0.59
  YSB1174YSB1171       CONDUIT     20.15     0  03:01      0.07    0.03    0.70
  YSB1171HS02004479    CONDUIT     44.91     0  03:02      0.54    0.03    0.55
  HS02004881HS02006253 CONDUIT     84.17     0  03:01      2.15    0.02    0.53
  YS02001793JiankangQianchi CONDUIT    983.99     0  02:59     16.51    0.08    1.00
  YS02001757CaochengTiaoxuchi CONDUIT   1577.31     0  02:35      2.02    0.69    1.00
  WSF200WS02003060     CONDUIT    828.65     0  03:05      1.85    0.18    0.42
  1                    CONDUIT   1218.61     0  03:08      3.51    0.42    0.45
  CC-Pump-1            PUMP       200.00     0  03:50              1.00
  CC-Pump-2            PUMP       200.00     0  03:20              1.00
  JK-Pump-1            PUMP       300.00     0  02:10              1.00
  JK-Pump-2            PUMP       683.00     0  02:10              1.00
  XR-Pump-1            PUMP        95.00     0  00:00              1.00
  XR-Pump-2            PUMP        95.00     0  00:00              1.00
  XR-Pump-3            PUMP        95.00     0  00:00              1.00
  XR-Pump-4            PUMP        95.00     0  00:00              1.00
  
  
  ***************************
  Flow Classification Summary
  ***************************
  
  -------------------------------------------------------------------------------------
                      Adjusted    ---------- Fraction of Time in Flow Class ---------- 
                       /Actual         Up    Down  Sub   Sup   Up    Down  Norm  Inlet 
  Conduit               Length    Dry  Dry   Dry   Crit  Crit  Crit  Crit  Ltd   Ctrl  
  -------------------------------------------------------------------------------------
  WS02003066WSF200        1.00   0.01  0.06  0.00  0.00  0.93  0.00  0.00  0.61  0.00
  WS02006287WS02006284    1.00   0.03  0.02  0.00  0.53  0.41  0.00  0.00  0.62  0.00
  WS02006284WS02006280    1.00   0.04  0.00  0.00  0.00  0.00  0.00  0.96  0.00  0.00
  WS02006280WS02006229    1.00   0.04  0.00  0.00  0.00  0.02  0.00  0.94  0.02  0.00
  WS02006229WS02006228    1.00   0.00  0.00  0.00  1.00  0.00  0.00  0.00  0.00  0.00
  WS02006256WS02006235    1.00   0.04  0.00  0.00  0.96  0.00  0.00  0.00  0.00  0.00
  WS02006253WS02006251    1.00   0.01  0.02  0.00  0.95  0.00  0.01  0.00  0.00  0.00
  WS02006252WS02006251    1.00   0.22  0.00  0.00  0.05  0.00  0.73  0.00  0.00  0.00
  WS02006251WS02006249    1.00   0.00  0.00  0.00  1.00  0.00  0.00  0.00  0.42  0.00
  WS02006249WS02006248    1.00   0.00  0.01  0.00  0.82  0.00  0.17  0.00  0.00  0.00
  WS02006248WS02006247    1.00   0.01  0.00  0.00  0.98  0.00  0.00  0.02  0.29  0.00
  WS02006247WS02006245    1.00   0.01  0.00  0.00  0.96  0.00  0.00  0.04  0.00  0.00
  WS02006245WS02006243    1.00   0.01  0.00  0.00  0.93  0.00  0.00  0.06  0.01  0.00
  WS02006243WS02006242    1.00   0.01  0.00  0.00  0.96  0.00  0.00  0.03  0.25  0.00
  WS02006242WS02006240    1.00   0.01  0.02  0.00  0.96  0.00  0.00  0.00  0.00  0.00
  WS02006240WS02006239    1.00   0.04  0.00  0.00  0.94  0.00  0.00  0.02  0.01  0.00
  WS02006239WS02006238    1.00   0.04  0.00  0.00  0.96  0.00  0.00  0.00  0.01  0.00
  WS02006238WS02006235    1.00   0.04  0.00  0.00  0.96  0.00  0.00  0.00  0.00  0.00
  WS02006235WS02006234    1.00   0.04  0.00  0.00  0.95  0.00  0.01  0.00  0.00  0.00
  WS02006234WS02006232    1.00   0.04  0.00  0.00  0.96  0.00  0.00  0.00  0.00  0.00
  WS02006232WS02006231    1.00   0.04  0.00  0.00  0.96  0.00  0.00  0.00  0.00  0.00
  WS02006231WS02006230    1.00   0.04  0.00  0.00  0.64  0.00  0.32  0.00  0.00  0.00
  WS02006230WS02006229    1.00   0.00  0.00  0.00  0.99  0.00  0.00  0.01  0.00  0.00
  WS02006228WS02006109    1.00   0.00  0.00  0.00  1.00  0.00  0.00  0.00  0.00  0.00
  WS02006116WS02004401    1.00   0.03  0.00  0.00  0.97  0.00  0.00  0.00  0.00  0.00
  WS02006115WS02006116    1.00   0.03  0.00  0.00  0.95  0.00  0.00  0.02  0.00  0.00
  WS02006113WS02006111    1.00   0.02  0.00  0.00  0.03  0.95  0.00  0.00  0.22  0.00
  WS02006112WS02006115    1.00   0.02  0.01  0.00  0.97  0.00  0.00  0.00  0.00  0.00
  WS02006111WS02006112    1.00   0.02  0.00  0.00  0.98  0.00  0.00  0.00  0.86  0.00
  WS02006110WS02006113    1.00   0.00  0.02  0.00  0.98  0.00  0.00  0.00  0.00  0.00
  WS02006109WS02006110    1.00   0.00  0.00  0.00  0.99  0.00  0.00  0.00  0.00  0.00
  WS02004411WS02004412    1.00   0.06  0.00  0.00  0.94  0.00  0.00  0.00  0.00  0.00
  WS02004401WS02004402    1.00   0.03  0.00  0.00  0.97  0.00  0.00  0.00  0.02  0.00
  WS02004413WS02003067    1.00   0.06  0.01  0.00  0.00  0.00  0.94  0.00  0.00  0.00
  WS02004412WS02004413    1.00   0.06  0.00  0.00  0.94  0.00  0.00  0.00  0.00  0.00
  WS02004410WS02004411    1.00   0.05  0.00  0.00  0.95  0.00  0.00  0.00  0.00  0.00
  WS02004409WS02004410    1.00   0.05  0.00  0.00  0.95  0.00  0.00  0.00  0.00  0.00
  WS02004407WS02004409    1.00   0.05  0.00  0.00  0.94  0.00  0.00  0.00  0.83  0.00
  WS02004406WS02004407    1.00   0.00  0.05  0.00  0.95  0.00  0.00  0.00  0.00  0.00
  WS02004405WS02004406    1.00   0.00  0.00  0.00  1.00  0.00  0.00  0.00  0.04  0.00
  WS02004404WS02004405    1.00   0.00  0.00  0.00  1.00  0.00  0.00  0.00  0.00  0.00
  WS02004403WS02004404    1.00   0.00  0.03  0.00  0.97  0.00  0.00  0.00  0.04  0.00
  WS02004402WS02004403    1.00   0.03  0.00  0.00  0.97  0.00  0.00  0.00  0.00  0.00
  WS02004139WS02001211    1.00   0.00  0.00  0.00  1.00  0.00  0.00  0.00  0.00  0.00
  WS02004138WS02004139    1.00   0.00  0.00  0.00  1.00  0.00  0.00  0.00  1.00  0.00
  WS02003067WS02003066    1.00   0.06  0.00  0.00  0.93  0.00  0.00  0.00  0.00  0.00
  WS02001213WS02003059    1.00   0.00  0.00  0.00  1.00  0.00  0.00  0.00  0.00  0.00
  WS02001212WS02001213    1.00   0.00  0.00  0.00  0.90  0.00  0.10  0.00  0.00  0.00
  WS02001211WS02001212    1.00   0.00  0.00  0.00  1.00  0.00  0.00  0.00  0.00  0.00
  WS02003072WS02003073    1.00   0.00  0.00  0.00  0.00  0.00  0.00  1.00  0.00  0.00
  WS02003069WS02003072    1.00   0.00  0.00  0.00  1.00  0.00  0.00  0.00  0.12  0.00
  WS02003060WS02003069    1.00   0.00  0.00  0.00  0.99  0.01  0.00  0.00  0.08  0.00
  WS02003059WS02003060    1.00   0.00  0.00  0.00  1.00  0.00  0.00  0.00  0.00  0.00
  HS02004901HS02004770    1.00   0.04  0.00  0.00  0.96  0.00  0.00  0.00  0.00  0.00
  HS02004876HS02004881    1.00   0.01  0.00  0.00  0.91  0.09  0.00  0.00  0.00  0.00
  HS02004870HS02004876    1.00   0.00  0.00  0.00  1.00  0.00  0.00  0.00  0.95  0.00
  HS02004842HS02004848    1.00   0.00  0.04  0.00  0.96  0.00  0.00  0.00  0.55  0.00
  HS02004837HS02004842    1.00   0.00  0.00  0.00  1.00  0.00  0.00  0.00  0.11  0.00
  HS02004830HS02004837    1.00   0.00  0.00  0.00  1.00  0.00  0.00  0.00  0.99  0.00
  HS02004824HS02004830    1.00   0.00  0.00  0.00  1.00  0.00  0.00  0.00  0.00  0.00
  HS02004817HS02004824    1.00   0.00  0.00  0.00  1.00  0.00  0.00  0.00  1.00  0.00
  HS02004770HS02004777    1.00   0.00  0.04  0.00  0.96  0.00  0.00  0.00  0.02  0.00
  HS02004799HS02004480    1.00   0.00  0.01  0.00  0.95  0.00  0.04  0.00  0.00  0.00
  HS02004792HS02004799    1.00   0.00  0.00  0.00  1.00  0.00  0.00  0.00  0.98  0.00
  HS02004788HS02004792    1.00   0.00  0.00  0.00  1.00  0.00  0.00  0.00  0.98  0.00
  HS02004785HS02004788    1.00   0.00  0.00  0.00  1.00  0.00  0.00  0.00  0.00  0.00
  HS02004777HS02004785    1.00   0.00  0.00  0.00  1.00  0.00  0.00  0.00  0.12  0.00
  HS02004480HS02004478    1.00   0.04  0.00  0.00  0.63  0.00  0.00  0.33  0.00  0.00
  HS02004479HS02004480    1.00   0.01  0.00  0.00  0.99  0.00  0.00  0.00  0.11  0.00
  HS02004862HS02004870    1.00   0.00  0.00  0.00  1.00  0.00  0.00  0.00  0.03  0.00
  HS02004848HS02004852    1.00   0.04  0.00  0.00  0.96  0.00  0.00  0.00  0.62  0.00
  HS02004856HS02004862    1.00   0.00  0.05  0.00  0.95  0.00  0.00  0.00  0.83  0.00
  HS02004852HS02004856    1.00   0.04  0.00  0.00  0.96  0.00  0.00  0.00  0.85  0.00
  HS02004802HS02004478    1.00   0.04  0.00  0.00  0.96  0.00  0.00  0.00  0.02  0.00
  HS02004478WS02006287    1.00   0.05  0.00  0.00  0.70  0.25  0.00  0.00  0.64  0.00
  HS02004817HS02004807    1.00   0.00  0.04  0.00  0.96  0.00  0.00  0.00  0.01  0.00
  HS02004807HS02004802    1.00   0.04  0.00  0.00  0.95  0.00  0.00  0.01  0.00  0.00
  YS02001759YS02001757    1.00   0.00  0.00  0.00  1.00  0.00  0.00  0.00  0.16  0.00
  YS02001762YS02001759    1.00   0.00  0.00  0.00  1.00  0.00  0.00  0.00  0.03  0.00
  YS02001765YS02001762    1.00   0.00  0.00  0.00  1.00  0.00  0.00  0.00  0.13  0.00
  YS02001770YS02001767    1.00   0.00  0.00  0.00  1.00  0.00  0.00  0.00  0.00  0.00
  YS02001774YS02001770    1.00   0.00  0.04  0.00  0.96  0.00  0.00  0.00  0.02  0.00
  YS02001779YS02001774    1.00   0.00  0.00  0.00  1.00  0.00  0.00  0.00  0.18  0.00
  YS02001649YS02001757    1.00   0.00  0.00  0.00  1.00  0.00  0.00  0.00  0.16  0.00
  YS02001767YS02001765    1.00   0.00  0.00  0.00  1.00  0.00  0.00  0.00  0.00  0.00
  YS02006561YS02001783    1.00   0.06  0.00  0.00  0.31  0.63  0.00  0.00  0.49  0.00
  YS02001783YS02001784    1.00   0.00  0.06  0.00  0.94  0.00  0.00  0.00  0.01  0.00
  YS02001784YS02001785    1.00   0.00  0.00  0.00  1.00  0.00  0.00  0.00  0.17  0.00
  YS02001788YS02001790    1.00   0.00  0.00  0.00  0.34  0.66  0.00  0.00  0.38  0.00
  YS02001790YS02001791    1.00   0.00  0.00  0.00  0.29  0.71  0.00  0.00  0.47  0.00
  YS02001791YS02001793    1.00   0.00  0.00  0.00  0.31  0.69  0.00  0.00  0.03  0.00
  YS02001910YS02001907    1.00   0.00  0.00  0.00  0.99  0.00  0.00  0.01  0.12  0.00
  YS02001786YS02001788    1.00   0.00  0.00  0.00  0.33  0.67  0.00  0.00  0.00  0.00
  YS02001915YS02001910    1.00   0.00  0.00  0.00  0.99  0.01  0.00  0.00  0.15  0.00
  YS02001918YS02001915    1.00   0.00  0.00  0.00  0.99  0.00  0.00  0.00  0.54  0.00
  YS02001923YS02001920    1.00   0.00  0.00  0.00  1.00  0.00  0.00  0.00  0.84  0.00
  YS02001926YS02001923    1.00   0.00  0.02  0.00  0.16  0.00  0.81  0.00  0.00  0.00
  YS02001929YS02001926    1.00   0.00  0.04  0.00  0.96  0.00  0.00  0.00  0.76  0.00
  YS02001920YS02001918    1.00   0.00  0.00  0.00  1.00  0.00  0.00  0.00  0.00  0.00
  YS02001629YS02163301    1.00   0.05  0.01  0.00  0.95  0.00  0.00  0.00  0.00  0.00
  YS02001619YS02001622    1.00   0.04  0.00  0.00  0.96  0.00  0.00  0.00  0.00  0.00
  YS02001622YS02001625    1.00   0.04  0.00  0.00  0.96  0.00  0.00  0.00  0.04  0.00
  YS02001625YS02001629    1.00   0.04  0.02  0.00  0.92  0.00  0.02  0.00  0.00  0.00
  YS02163301YS02001633    1.00   0.00  0.05  0.00  0.95  0.00  0.00  0.00  0.00  0.00
  YS02163601YS02164001    1.00   0.00  0.02  0.00  0.98  0.00  0.00  0.00  0.00  0.00
  YS02164001YS02001641    1.00   0.00  0.02  0.00  0.98  0.00  0.00  0.00  0.06  0.00
  YS02001641YS02001644    1.00   0.00  0.00  0.00  1.00  0.00  0.00  0.00  0.00  0.00
  YS02001647YS02001649    1.00   0.00  0.06  0.00  0.94  0.00  0.00  0.00  0.01  0.00
  YS02006553YS02006556    1.00   0.00  0.00  0.00  1.00  0.00  0.00  0.00  0.03  0.00
  YS02006556YS02006558    1.00   0.00  0.00  0.00  1.00  0.00  0.00  0.00  0.00  0.00
  YSB6556YSB1171          1.00   0.01  0.02  0.00  0.96  0.00  0.00  0.00  0.00  0.00
  YS02001907YS02006553    1.00   0.00  0.01  0.00  0.99  0.00  0.00  0.00  0.00  0.00
  YS02006558YS02006561    1.00   0.06  0.00  0.00  0.17  0.77  0.00  0.00  0.50  0.00
  YS02001633YS02163601    1.00   0.00  0.00  0.00  1.00  0.00  0.00  0.00  0.15  0.00
  YS02001644YS02001647    1.00   0.00  0.06  0.00  0.94  0.00  0.00  0.00  0.00  0.00
  YS02001745YS02001748    1.00   0.00  0.00  0.00  0.89  0.01  0.00  0.10  0.04  0.00
  YS02001748YS02001751    1.00   0.00  0.00  0.00  0.96  0.04  0.00  0.00  0.15  0.00
  YS02001751YS02001754    1.00   0.00  0.00  0.00  0.93  0.00  0.00  0.07  0.02  0.00
  YS02001754YS02001757    1.00   0.00  0.00  0.00  1.00  0.00  0.00  0.00  0.18  0.00
  YS02001882YS02001884    1.00   0.05  0.00  0.00  0.95  0.00  0.00  0.00  0.00  0.00
  YS02001884YS02001887    1.00   0.02  0.02  0.00  0.97  0.00  0.00  0.00  0.00  0.00
  YS02001890YS02001895    1.00   0.00  0.05  0.00  0.95  0.00  0.00  0.00  0.00  0.00
  YS02001895YS02001898    1.00   0.05  0.00  0.00  0.93  0.00  0.01  0.00  0.00  0.00
  YS02001898YS02001901    1.00   0.05  0.00  0.00  0.95  0.00  0.00  0.00  0.01  0.00
  YS02001901YS02001904    1.00   0.05  0.00  0.00  0.95  0.00  0.00  0.00  0.00  0.00
  YS02001904YS02001907    1.00   0.00  0.05  0.00  0.95  0.00  0.00  0.00  0.00  0.00
  YS02001887YS02001890    1.00   0.00  0.00  0.00  0.99  0.00  0.01  0.00  0.00  0.00
  YS02001652YS02001649    1.00   0.00  0.00  0.00  0.99  0.00  0.00  0.00  0.16  0.00
  YS02001655YS02001652    1.00   0.00  0.00  0.00  0.93  0.00  0.00  0.07  0.02  0.00
  YS02001658YS02001655    1.00   0.00  0.04  0.00  0.92  0.04  0.00  0.00  0.08  0.00
  YS02001661YS02001658    1.00   0.04  0.00  0.00  0.89  0.06  0.00  0.00  0.08  0.00
  YS02001664YS02001661    1.00   0.04  0.00  0.00  0.91  0.06  0.00  0.00  0.19  0.00
  YSB1154YSB6556          1.00   0.04  0.00  0.00  0.96  0.00  0.00  0.00  0.01  0.00
  YSB1174YSB1171          1.00   0.01  0.01  0.00  0.97  0.00  0.00  0.00  0.00  0.00
  YSB1171HS02004479       1.00   0.01  0.00  0.00  0.98  0.00  0.00  0.00  0.10  0.00
  HS02004881HS02006253    1.00   0.02  0.00  0.00  0.44  0.02  0.00  0.53  0.25  0.00
  YS02001793JiankangQianchi    1.00   0.00  0.00  0.00  0.66  0.34  0.00  0.00  0.46  0.00
  YS02001757CaochengTiaoxuchi    1.00   0.00  0.08  0.00  0.92  0.00  0.00  0.00  0.00  0.00
  WSF200WS02003060        1.00   0.00  0.01  0.00  0.97  0.02  0.00  0.00  0.54  0.00
  1                       1.00   0.00  0.00  0.00  0.00  1.00  0.00  0.00  0.54  0.00
  
  
  *************************
  Conduit Surcharge Summary
  *************************
  
  ----------------------------------------------------------------------------
                                                           Hours        Hours 
                         --------- Hours Full --------   Above Full   Capacity
  Conduit                Both Ends  Upstream  Dnstream   Normal Flow   Limited
  ----------------------------------------------------------------------------
  WS02006229WS02006228        2.41      2.51      2.41      3.37         2.41
  WS02006256WS02006235        4.98      4.98      6.78      4.10         0.01
  WS02006253WS02006251        0.51      0.51      0.53      0.01         0.04
  WS02006252WS02006251        0.27      0.27      0.56      0.37         0.01
  WS02006251WS02006249        0.52      0.52      0.58      0.11         0.06
  WS02006249WS02006248        0.54      0.54      0.58      1.07         0.01
  WS02006248WS02006247        0.58      0.58      0.67      0.01         0.01
  WS02006247WS02006245        0.68      0.70      0.68      1.84         0.64
  WS02006245WS02006243        0.70      0.70      0.78      0.01         0.01
  WS02006243WS02006242        0.82      0.82      1.15      0.01         0.01
  WS02006242WS02006240        1.06      1.06      1.27      0.36         0.01
  WS02006240WS02006239        1.11      1.11      1.26      0.01         0.04
  WS02006239WS02006238        1.44      1.44      1.68      0.01         0.06
  WS02006238WS02006235        1.68      1.68      1.90      0.01         0.01
  WS02006235WS02006234        1.32      1.32      1.61      4.89         0.01
  WS02006234WS02006232        1.50      1.50      2.14      0.09         0.14
  WS02006232WS02006231        0.87      0.87      2.14      0.27         0.01
  WS02006231WS02006230        0.64      0.64      0.91      5.10         0.01
  WS02006230WS02006229        3.03      3.27      3.03      5.51         3.03
  WS02006228WS02006109        2.44      2.76      2.44      4.21         2.44
  WS02006116WS02004401        0.20      0.20      0.21      0.17         0.17
  WS02006115WS02006116        0.14      0.14      0.14      0.11         0.11
  WS02006112WS02006115        0.13      0.13      1.33      0.01         0.01
[...]
  YS02001765YS02001762        5.84      5.84      5.87      0.01         0.01
  YS02001770YS02001767        5.81      5.81      5.81      0.19         0.68
  YS02001774YS02001770        5.80      5.80      5.86      0.01         0.01
  YS02001779YS02001774        5.68      5.68      5.86      0.01         0.01
  YS02001649YS02001757        5.87      5.87      5.98      0.01         0.01
  YS02001767YS02001765        5.81      5.81      5.84      0.01         0.01
  YS02006561YS02001783        0.77      0.77      1.06      0.01         0.01
  YS02001783YS02001784        1.03      1.06      1.03      1.40         1.01
  YS02001784YS02001785        0.98      1.03      0.98      2.41         0.98
  YS02001788YS02001790        0.93      0.93      1.85      0.01         0.01
  YS02001790YS02001791        1.84      1.85      1.95      0.87         0.84
  YS02001791YS02001793        1.95      1.95      2.34      0.01         0.01
  YS02001910YS02001907        1.07      1.07      1.76      0.01         0.01
  YS02001786YS02001788        0.93      0.98      0.93      2.02         0.92
  YS02001915YS02001910        0.89      0.89      1.07      0.01         0.01
  YS02001918YS02001915        0.71      0.71      0.89      0.01         0.01
  YS02001923YS02001920        0.54      0.54      0.74      0.01         0.01
  YS02001920YS02001918        0.71      0.71      0.74      0.01         0.01
  YS02001629YS02163301        5.80      5.80      5.81      0.01         0.01
  YS02001619YS02001622        5.47      5.47      5.50      0.01         0.01
  YS02001622YS02001625        5.50      5.50      5.76      0.01         0.01
  YS02001625YS02001629        5.47      5.47      5.76      0.01         0.01
  YS02163301YS02001633        5.81      5.81      5.84      0.01         0.01
  YS02163601YS02164001        5.84      5.84      5.87      0.01         0.01
  YS02164001YS02001641        5.84      5.84      5.85      0.01         0.04
  YS02001641YS02001644        5.85      5.85      5.85      1.52         1.54
  YS02001647YS02001649        5.75      5.75      5.87      0.01         0.01
  YS02006553YS02006556        1.30      1.30      1.85      0.01         0.01
  YS02006556YS02006558        1.54      1.54      1.95      0.01         0.01
  YS02001907YS02006553        2.43      2.43      2.68      0.01         0.01
  YS02006558YS02006561        0.91      1.26      0.91      2.23         0.91
  YS02001633YS02163601        5.83      5.83      5.87      0.01         0.01
  YS02001644YS02001647        5.75      5.75      5.85      0.01         0.01
  YS02001745YS02001748        0.01      0.01      5.30      0.01         0.01
  YS02001748YS02001751        5.35      5.35      5.49      0.01         0.01
  YS02001751YS02001754        5.49      5.49      5.69      0.01         0.01
  YS02001754YS02001757        5.74      5.74      5.98      0.01         0.01
  YS02001882YS02001884        0.91      0.91      0.93      0.01         0.01
  YS02001884YS02001887        0.97      0.97      1.00      0.01         0.01
  YS02001890YS02001895        0.88      0.88      1.08      0.01         0.01
  YS02001895YS02001898        0.87      0.87      0.88      0.01         0.01
  YS02001898YS02001901        0.89      0.89      0.97      0.01         0.01
  YS02001901YS02001904        0.94      0.94      0.97      0.01         0.01
  YS02001904YS02001907        0.94      0.94      1.89      0.01         0.01
  YS02001887YS02001890        1.02      1.02      1.04      0.01         0.01
  YS02001652YS02001649        5.76      5.76      5.87      0.01         0.01
  YS02001655YS02001652        5.50      5.50      5.73      0.01         0.01
  YS02001658YS02001655        5.33      5.33      5.50      0.01         0.01
  YS02001661YS02001658        0.14      0.14      5.33      0.01         0.01
  YS02001664YS02001661        0.01      0.01      1.07      0.01         0.01
  HS02004881HS02006253        0.01      0.01      0.17      0.01         0.01
  YS02001793JiankangQianchi        2.24      2.24      5.32      0.01         0.01
  YS02001757CaochengTiaoxuchi        5.21      5.21      5.98      0.01         0.01
  
  
  ***************
  Pumping Summary
  ***************
  
  ---------------------------------------------------------------------------------------------------------
                                                  Min       Avg       Max     Total     Power    % Time Off
                        Percent   Number of      Flow      Flow      Flow    Volume     Usage    Pump Curve
  Pump                 Utilized   Start-Ups       LPS       LPS       LPS  10^6 ltr     Kw-hr    Low   High
  ---------------------------------------------------------------------------------------------------------
  CC-Pump-1               38.30           4      0.00    121.74    200.00     1.200      0.81    0.0    0.0
  CC-Pump-2               12.76           3      0.00     99.54    200.00     0.360      0.35    0.0    0.0
  JK-Pump-1               55.31           5      0.00    233.03    300.00     3.381     52.18    0.0    0.0
  JK-Pump-2               51.05           4      0.00    447.45    683.00     6.159     85.77    0.0   95.3
  XR-Pump-1              100.00           1      0.00     95.00     95.00     2.679     27.14    0.0    0.0
  XR-Pump-2               95.74           3      0.00     91.76     95.00     2.394     21.17    0.0    0.0
  XR-Pump-3               95.74           3      0.00     91.76     95.00     2.394     21.17    0.0    0.0
  XR-Pump-4               95.74           3      0.00     91.76     95.00     2.394     21.17    0.0    0.0
  
  
  ***************************
  Link Pollutant Load Summary
  ***************************
  
  ------------------------------------------------------------------------------------------
                                 COD            SS            TN            TP         NH4-N
  Link                            kg            kg            kg            kg            kg
  ------------------------------------------------------------------------------------------
  WS02003066WSF200           639.695      1182.542        17.699         1.598         9.439
  WS02006287WS02006284       268.035       498.162         9.344         0.943         5.213
  WS02006284WS02006280       268.519       498.941         9.391         0.948         5.242
  WS02006280WS02006229       268.483       498.872         9.389         0.948         5.241
  WS02006229WS02006228       637.662      1179.174        17.335         1.547         9.205
  WS02006256WS02006235       195.295       358.830         4.246         0.327         2.139
  WS02006253WS02006251        50.838        98.137         1.125         0.084         0.557
  WS02006252WS02006251       135.050       245.149         2.858         0.210         1.412
  WS02006251WS02006249       179.795       332.297         3.865         0.286         1.913
  WS02006249WS02006248       176.714       326.603         3.796         0.281         1.878
  WS02006248WS02006247       177.009       327.133         3.811         0.283         1.887
  WS02006247WS02006245       177.233       327.480         3.824         0.284         1.895
  WS02006245WS02006243       177.453       327.864         3.836         0.285         1.902
  WS02006243WS02006242       177.984       328.667         3.860         0.288         1.916
  WS02006242WS02006240       180.083       332.293         3.893         0.289         1.930
  WS02006240WS02006239       183.548       338.374         3.979         0.296         1.975
  WS02006239WS02006238       187.720       345.505         4.091         0.306         2.034
  WS02006238WS02006235       190.528       350.298         4.165         0.312         2.073
  WS02006235WS02006234       370.983       683.494         8.018         0.606         4.005
  WS02006234WS02006232       370.844       683.188         8.017         0.606         4.005
  WS02006232WS02006231       370.668       682.880         8.013         0.606         4.003
  WS02006231WS02006230       371.047       683.599         8.021         0.606         4.007
  WS02006230WS02006229       370.113       681.906         7.998         0.605         3.996
  WS02006228WS02006109       636.517      1177.209        17.269         1.539         9.165
  WS02006116WS02004401       648.215      1197.696        17.964         1.622         9.584
  WS02006115WS02006116       649.312      1199.651        17.998         1.626         9.602
  WS02006113WS02006111       642.925      1187.255        17.955         1.626         9.597
  WS02006112WS02006115       650.200      1201.178        18.042         1.631         9.628
  WS02006111WS02006112       642.292      1186.133        17.932         1.624         9.584
  WS02006110WS02006113       643.175      1187.681        17.971         1.628         9.607
  WS02006109WS02006110       644.127      1189.271        18.036         1.636         9.646
  WS02004411WS02004412       641.695      1186.003        17.792         1.608         9.493
  WS02004401WS02004402       647.129      1195.790        17.921         1.618         9.559
  WS02004413WS02003067       639.997      1183.079        17.709         1.599         9.444
  WS02004412WS02004413       641.010      1184.800        17.766         1.605         9.479
  WS02004410WS02004411       642.215      1186.923        17.810         1.610         9.503
  WS02004409WS02004410       642.753      1187.870        17.830         1.612         9.515
  WS02004407WS02004409       643.131      1188.551        17.840         1.612         9.520
  WS02004406WS02004407       643.174      1188.649        17.836         1.612         9.517
  WS02004405WS02004406       644.889      1191.563        17.938         1.624         9.579
  WS02004404WS02004405       645.713      1193.116        17.933         1.622         9.572
  WS02004403WS02004404       645.102      1192.211        17.847         1.610         9.517
  WS02004402WS02004403       646.036      1193.851        17.884         1.614         9.538
  WS02004139WS02001211      1392.980      2295.127       115.802        14.181        71.512
  WS02004138WS02004139      1399.298      2305.564       116.311        14.243        71.826
  WS02003067WS02003066       639.791      1182.707        17.704         1.598         9.442
  WS02001213WS02003059      1426.477      2348.025       119.225        14.612        73.661
  WS02001212WS02001213      1435.144      2362.271       119.947        14.700        74.107
  WS02001211WS02001212      1437.325      2365.808       120.140        14.724        74.228
  WS02003072WS02003073      2166.838      3690.953       146.800        17.448        89.283
  WS02003069WS02003072      2171.779      3698.994       147.230        17.501        89.549
  WS02003060WS02003069      2174.467      3703.485       147.429        17.524        89.671
  WS02003059WS02003060      1423.749      2343.462       119.022        14.588        73.537
  HS02004901HS02004770        10.271        19.478         0.195         0.015         0.091
  HS02004876HS02004881        37.315        72.574         0.842         0.062         0.416
  HS02004870HS02004876        28.158        54.624         0.677         0.051         0.338
  HS02004842HS02004848         5.467        10.276         0.115         0.008         0.053
  HS02004837HS02004842        10.073        17.583         0.584         0.067         0.347
  HS02004830HS02004837        65.637       112.701         4.556         0.546         2.785
  HS02004824HS02004830        66.387       113.902         4.628         0.555         2.829
  HS02004817HS02004824        88.200       156.965         5.082         0.584         3.051
  HS02004770HS02004777        39.296        75.466         0.819         0.055         0.377
  HS02004799HS02004480       131.403       245.357         3.679         0.335         1.932
  HS02004792HS02004799       119.083       220.656         3.496         0.327         1.853
  HS02004788HS02004792        68.397       126.858         2.388         0.235         1.309
  HS02004785HS02004788        40.735        77.762         0.969         0.074         0.471
  HS02004777HS02004785        40.059        76.666         0.908         0.067         0.433
  HS02004480HS02004478       165.944       312.577         4.243         0.374         2.195
  HS02004479HS02004480        38.139        72.965         0.883         0.079         0.462
  HS02004862HS02004870        21.015        40.114         0.536         0.043         0.270
  HS02004848HS02004852         8.057        15.279         0.167         0.011         0.077
  HS02004856HS02004862        14.071        27.339         0.284         0.019         0.133
  HS02004852HS02004856         8.064        15.290         0.167         0.011         0.077
  HS02004802HS02004478       102.873       186.866         5.161         0.575         3.054
  HS02004478WS02006287       268.234       498.499         9.361         0.945         5.223
  HS02004817HS02004807        86.882       154.850         4.956         0.568         2.972
  HS02004807HS02004802       103.105       187.229         5.193         0.580         3.075
  YS02001759YS02001757       297.170       539.427         5.971         0.414         2.920
  YS02001762YS02001759       155.203       282.966         3.287         0.232         1.627
  YS02001765YS02001762       156.392       285.924         3.333         0.237         1.653
  YS02001770YS02001767       158.017       290.884         3.205         0.214         1.561
  YS02001774YS02001770       216.991       413.831         4.233         0.280         2.048
  YS02001779YS02001774       216.358       412.527         4.327         0.295         2.113
  YS02001649YS02001757       350.071       626.819         7.117         0.488         3.432
  YS02001767YS02001765       157.927       289.440         3.383         0.241         1.680
  YS02006561YS02001783       936.013      1716.569        19.829         1.488         9.895
  YS02001783YS02001784       935.877      1716.350        19.824         1.487         9.893
  YS02001784YS02001785       943.207      1728.091        20.537         1.577        10.339
  YS02001788YS02001790       943.794      1729.035        20.609         1.586        10.385
  YS02001790YS02001791       944.967      1730.951        20.713         1.599        10.450
  YS02001791YS02001793       944.831      1730.723        20.707         1.598        10.446
  YS02001910YS02001907       330.105       599.233         8.230         0.642         4.252
  YS02001786YS02001788       943.400      1728.407        20.565         1.580        10.357
  YS02001915YS02001910       330.183       599.354         8.186         0.635         4.222
  YS02001918YS02001915       159.748       277.660         4.655         0.433         2.534
  YS02001923YS02001920       137.503       241.229         2.669         0.188         1.299
  YS02001926YS02001923       136.555       239.682         2.591         0.178         1.251
  YS02001929YS02001926       136.174       239.035         2.555         0.174         1.228
  YS02001920YS02001918       157.678       273.605         4.585         0.427         2.495
  YS02001629YS02163301       103.470       183.334         2.170         0.140         1.012
  YS02001619YS02001622       146.401       262.942         3.031         0.197         1.414
  YS02001622YS02001625       145.256       261.135         3.003         0.195         1.401
  YS02001625YS02001629       104.559       185.135         2.194         0.141         1.022
  YS02163301YS02001633       103.205       182.888         2.163         0.140         1.009
  YS02163601YS02164001       362.016       646.158         7.115         0.502         3.403
  YS02164001YS02001641       361.532       645.346         7.096         0.500         3.392
  YS02001641YS02001644       361.787       645.703         7.095         0.500         3.391
  YS02001647YS02001649       407.977       737.170         8.226         0.567         3.947
  YS02006553YS02006556       657.507      1200.178        14.230         1.094         7.177
  YS02006556YS02006558       657.468      1200.094        14.199         1.090         7.156
  YSB6556YSB1171              21.955        42.202         0.451         0.038         0.229
  YS02001907YS02006553       657.612      1200.394        14.244         1.096         7.186
  YS02006558YS02006561       936.015      1716.565        19.828         1.488         9.895
  YS02001633YS02163601       362.700       647.214         7.095         0.498         3.387
  YS02001644YS02001647       413.391       747.105         8.305         0.573         3.983
  YS02001745YS02001748       209.925       386.216         4.720         0.329         2.356
  YS02001748YS02001751       208.452       383.305         4.802         0.343         2.416
  YS02001751YS02001754       207.478       381.709         4.784         0.343         2.408
  YS02001754YS02001757       208.237       382.851         4.947         0.365         2.514
  YS02001882YS02001884         2.908         5.022         0.058         0.005         0.029
  YS02001884YS02001887         6.908        12.235         0.135         0.010         0.067
  YS02001890YS02001895       389.415       720.555         7.188         0.539         3.508
  YS02001895YS02001898       389.230       720.297         7.182         0.539         3.504
  YS02001898YS02001901       389.019       719.935         7.177         0.538         3.502
  YS02001901YS02001904       388.858       719.705         7.183         0.540         3.507
  YS02001904YS02001907       389.069       720.025         7.237         0.547         3.541
  YS02001887YS02001890       390.220       721.762         7.243         0.546         3.541
  YS02001652YS02001649       155.981       284.893         3.186         0.229         1.493
  YS02001655YS02001652       156.858       286.282         3.209         0.231         1.504
  YS02001658YS02001655       156.635       285.893         3.130         0.219         1.451
  YS02001661YS02001658       161.414       294.362         3.228         0.226         1.496
  YS02001664YS02001661       176.121       319.052         3.551         0.248         1.644
  YSB1154YSB6556              21.537        41.536         0.403         0.032         0.199
  YSB1174YSB1171              14.653        28.289         0.298         0.024         0.149
  YSB1171HS02004479           38.097        72.898         0.887         0.079         0.464
  HS02004881HS02006253        42.259        82.481         0.933         0.068         0.459
  YS02001793JiankangQianchi       944.011      1729.350        20.625         1.588        10.395
  YS02001757CaochengTiaoxuchi       472.684       853.862        10.004         0.726         4.933
  WSF200WS02003060           639.755      1182.649        17.704         1.598         9.442
  1                         2172.460      3699.553       147.452        17.531        89.695
  CC-Pump-1                  103.429       187.726         2.179         0.160         1.075
  CC-Pump-2                   31.365        57.006         0.660         0.048         0.325
  JK-Pump-1                  223.136       413.869         4.716         0.358         2.359
  JK-Pump-2                  507.156       940.877        10.657         0.805         5.321
  XR-Pump-1                  394.208       647.461        33.305         4.088        20.596
  XR-Pump-2                  336.291       554.766        27.776         3.398        17.143
  XR-Pump-3                  336.291       554.766        27.776         3.398        17.143
  XR-Pump-4                  336.291       554.766        27.776         3.398        17.143
  

  Analysis begun on:  Thu Jul 15 14:40:25 2021
  Analysis ended on:  Thu Jul 15 14:40:28 2021
  Total elapsed time: 00:00:03