
  EPA STORM WATER MANAGEMENT MODEL - VERSION 5.1 (Build 5.3.0.dev0)
  --------------------------------------------------------------

  WARNING 04: minimum elevation drop used for Conduit WS02004404WS02004405
  WARNING 03: negative offset ignored for Link YS02001904YS02001907
  
  *********************************************************
  NOTE: The summary statistics displayed in this report are
  based on results found at every computational time step,  
  not just on results from each reporting time step.
  *********************************************************
  
  ****************
  Analysis Options
  ****************
  Flow Units ............... LPS
  Process Models:
    Rainfall/Runoff ........ YES
    RDII ................... NO
    Snowmelt ............... NO
    Groundwater ............ NO
    Flow Routing ........... YES
    Ponding Allowed ........ NO
    Water Quality .......... YES
  Infiltration Method ...... HORTON
  Flow Routing Method ...... DYNWAVE
  Surcharge Method ......... EXTRAN
  Starting Date ............ 08/28/2015 08:00:00
  Ending Date .............. 08/28/2015 15:50:00
  Antecedent Dry Days ...... 8.0
  Report Time Step ......... 00:01:00
  Wet Time Step ............ 00:01:00
  Dry Time Step ............ 00:01:00
  Routing Time Step ........ 5.00 sec
  Variable Time Step ....... YES
  Maximum Trials ........... 8
  Number of Threads ........ 4
  Head Tolerance ........... 0.001500 m
  
  
  **************************        Volume         Depth
  Runoff Quantity Continuity     hectare-m            mm
  **************************     ---------       -------
  Total Precipitation ......         5.556        12.164
  Evaporation Loss .........         0.000         0.000
  Infiltration Loss ........         1.002         2.194
  Surface Runoff ...........         3.688         8.075
  Final Storage ............         0.866         1.897
  Continuity Error (%) .....        -0.019
  
  
  **************************           COD            SS            TN            TP         NH4-N
  Runoff Quality Continuity             kg            kg            kg            kg            kg
  **************************    ----------    ----------    ----------    ----------    ----------
  Initial Buildup ..........     41378.656     70582.865      1804.177       168.684      1032.807
  Surface Buildup ..........        19.275        34.271         2.335         0.213         1.362
  Wet Deposition ...........         0.000         0.000         0.000         0.000         0.000
  Sweeping Removal .........         0.000         0.000         0.000         0.000         0.000
  Infiltration Loss ........        84.023       157.502         1.599         0.111         0.761
  BMP Removal ..............         0.000         0.000         0.000         0.000         0.000
  Surface Runoff ...........      3122.074      5752.154        60.620         4.098        28.771
  Remaining Buildup ........     38190.779     64705.500      1744.271       164.686      1004.628
  Continuity Error (%) .....         0.003         0.003         0.001         0.001         0.001
  
  
  **************************        Volume        Volume
  Flow Routing Continuity        hectare-m      10^6 ltr
  **************************     ---------     ---------
  Dry Weather Inflow .......         0.616         6.165
  Wet Weather Inflow .......         3.687        36.870
  Groundwater Inflow .......         0.000         0.000
  RDII Inflow ..............         0.000         0.000
  External Inflow ..........         0.102         1.024
  External Outflow .........         1.815        18.147
  Flooding Loss ............         2.145        21.451
  Evaporation Loss .........         0.000         0.000
  Exfiltration Loss ........         0.000         0.000
  Initial Stored Volume ....         0.076         0.761
  Final Stored Volume ......         0.636         6.359
  Continuity Error (%) .....        -2.538
  
  
  **************************           COD            SS            TN            TP         NH4-N
  Quality Routing Continuity            kg            kg            kg            kg            kg
  **************************    ----------    ----------    ----------    ----------    ----------
  Dry Weather Inflow .......      1541.201      2465.922       147.955        18.494        92.472
  Wet Weather Inflow .......      3121.251      5750.742        60.603         4.097        28.763
  Groundwater Inflow .......         0.000         0.000         0.000         0.000         0.000
  RDII Inflow ..............         0.000         0.000         0.000         0.000         0.000
  External Inflow ..........       183.418       293.469        17.608         2.201        11.005
  External Outflow .........      2214.385      3773.314       148.678        17.642        90.356
  Flooding Loss ............      1966.976      3595.138        51.103         4.443        26.876
  Exfiltration Loss ........         0.000         0.000         0.000         0.000         0.000
  Mass Reacted .............         0.000         0.000         0.000         0.000         0.000
  Initial Stored Mass ......         0.000         0.000         0.000         0.000         0.000
  Final Stored Mass ........       531.769       914.790        23.222         2.466        13.419
  Continuity Error (%) .....         2.739         2.666         1.399         0.974         1.201
  
  
  *************************
  Highest Continuity Errors
  *************************
  Node HS02004842 (14.53%)
  Node JK-storage (-11.42%)
  Node YS02001884 (11.35%)
  Node YSB1171 (2.74%)
  Node HS02004817 (2.73%)
  
  
  ***************************
  Time-Step Critical Elements
  ***************************
  Link WS02006252WS02006251 (61.44%)
  Link WS02006280WS02006229 (12.34%)
  Link WS02006238WS02006235 (8.25%)
  Link YS02001793JiankangQianchi (3.22%)
  Link YS02006556YS02006558 (2.96%)
  
  
  ********************************
  Highest Flow Instability Indexes
  ********************************
  Link WS02006113WS02006111 (50)
  Link YS02163601YS02164001 (42)
  Link YS02163301YS02001633 (41)
  Link YS02001629YS02163301 (40)
  Link YS02001619YS02001622 (40)
  
  
  *************************
  Routing Time Step Summary
  *************************
  Minimum Time Step           :     0.50 sec
  Average Time Step           :     1.26 sec
  Maximum Time Step           :     5.00 sec
  Percent in Steady State     :    -0.00
  Average Iterations per Step :     4.47
  Percent Not Converging      :    22.06
  
  
  ***************************
  Subcatchment Runoff Summary
  ***************************
  
  ------------------------------------------------------------------------------------------------------------------------------
                            Total      Total      Total      Total     Imperv       Perv      Total       Total     Peak  Runoff
                           Precip      Runon       Evap      Infil     Runoff     Runoff     Runoff      Runoff   Runoff   Coeff
  Subcatchment                 mm         mm         mm         mm         mm         mm         mm    10^6 ltr      LPS
  ------------------------------------------------------------------------------------------------------------------------------
  sub0                      12.16       0.00       0.00       0.65      11.27       0.20      11.47        0.01     1.99   0.943
  sub1                      12.16       0.00       0.00       1.12      10.73       0.22      10.95        0.07    14.96   0.900
  sub2                      12.16       0.00       0.00       4.23       7.58       0.27       7.85        0.07    15.08   0.646
  sub3                      12.16       0.00       0.00       4.29       7.54       0.21       7.75        0.17    34.61   0.637
  sub4                      12.16       0.00       0.00       1.19      10.57       0.14      10.71        0.22    42.34   0.881
  sub5                      12.16       0.00       0.00       0.69      11.21       0.16      11.38        0.13    26.18   0.935
  sub7                      12.16       0.00       0.00       0.88      11.01       0.22      11.22        0.04     7.95   0.923
  sub8                      12.16       0.00       0.00       0.89      11.00       0.21      11.20        0.07    14.89   0.921
  sub9                      12.16       0.00       0.00       0.89      10.99       0.21      11.20        0.05    11.18   0.921
  sub10                     12.16       0.00       0.00       0.79      11.10       0.18      11.28        0.12    25.49   0.928
  sub11                     12.16       0.00       0.00       0.78      11.12       0.19      11.31        0.13    27.35   0.930
  sub12                     12.16       0.00       0.00       1.27      10.53       0.31      10.85        0.09    20.52   0.892
  sub14                     12.16       0.00       0.00       0.89      10.99       0.20      11.20        0.11    22.08   0.920
  sub15                     12.16       0.00       0.00       3.28       8.45       0.37       8.82        0.15    32.49   0.725
  sub16                     12.16       0.00       0.00       3.51       8.11       0.50       8.61        0.09    20.36   0.708
  sub17                     12.16       0.00       0.00       3.41       8.23       0.48       8.71        0.07    16.72   0.716
  sub22                     12.16       0.00       0.00       4.80       6.89       0.43       7.32        0.46   102.62   0.602
  sub23                     12.16       0.00       0.00       4.05       7.62       0.45       8.07        0.38    85.35   0.663
  sub60                     12.16       0.00       0.00       1.42       8.82       0.04       8.86        2.69   336.84   0.729
  sub61                     12.16       0.00       0.00       2.01       8.94       0.06       9.00        2.78   399.45   0.740
  sub62                     12.16       0.00       0.00       0.92       9.73       0.05       9.78        3.01   415.79   0.804
  sub63                     12.16       0.00       0.00       3.46       7.82       0.06       7.88        2.39   361.21   0.648
  sub64                     12.16       0.00       0.00       1.78       8.47       0.04       8.51        2.59   320.97   0.699
  sub65                     12.16       0.00       0.00       1.54       8.61       0.04       8.65        2.66   326.54   0.711
  sub66                     12.16       0.00       0.00       3.49       7.26       0.04       7.30        2.24   290.53   0.600
  sub67                     12.16       0.00       0.00       0.91      10.24       0.07      10.31        3.18   494.23   0.848
  sub68                     12.16       0.00       0.00       1.64       9.40       0.06       9.46        2.91   432.52   0.778
  sub69                     12.16       0.00       0.00       1.73       9.72       0.09       9.82        2.29   383.95   0.807
  sub70                     12.16      10.02       0.00       6.98      13.09       0.56      13.65        3.12   394.93   0.615
  sub71                     12.16       0.00       0.00       0.93       9.48       0.05       9.53        2.25   296.34   0.783
  sub72                     12.16       0.00       0.00       0.83       7.62       0.02       7.64        1.56   151.13   0.628
  1                         12.16      13.29       0.00       1.37      14.64       3.94      18.57        4.36   399.24   0.730
  2                         12.16       0.00       0.00       3.02       2.89       1.65       4.55        1.82   245.52   0.374
  
  
  ****************************
  Subcatchment Washoff Summary
  ****************************
  
  ------------------------------------------------------------------------------------------
                                 COD            SS            TN            TP         NH4-N
  Subcatchment                    kg            kg            kg            kg            kg
  ------------------------------------------------------------------------------------------
  sub0                         2.176         4.147         0.037         0.003         0.018
  sub1                         9.268        18.138         0.173         0.012         0.083
  sub2                         5.563        10.570         0.119         0.008         0.054
  sub3                        13.747        25.918         0.288         0.019         0.132
  sub4                        21.530        42.606         0.429         0.026         0.205
  sub5                        21.300        41.103         0.378         0.029         0.183
  sub7                         4.748         9.424         0.090         0.006         0.043
  sub8                         7.142        14.500         0.143         0.008         0.069
  sub9                         6.100        12.212         0.118         0.007         0.057
  sub10                       17.532        34.266         0.321         0.023         0.155
  sub11                       17.086        33.770         0.320         0.022         0.154
  sub12                       14.392        27.890         0.260         0.019         0.125
  sub14                       13.021        25.823         0.247         0.016         0.119
  sub15                       16.182        30.744         0.313         0.023         0.146
  sub16                       10.318        19.555         0.197         0.015         0.092
  sub17                        9.471        17.789         0.175         0.014         0.082
  sub22                       48.821        90.813         0.932         0.070         0.434
  sub23                       29.138        56.181         0.627         0.041         0.287
  sub60                      203.703       376.194         4.083         0.248         1.956
  sub61                      251.300       461.579         4.699         0.320         2.261
  sub62                      262.762       491.326         5.157         0.324         2.474
  sub63                      185.047       334.594         3.739         0.261         1.731
  sub64                      253.867       452.095         4.687         0.339         2.235
  sub65                      260.106       465.192         4.834         0.344         2.309
  sub66                      146.558       263.078         3.037         0.197         1.417
  sub67                      388.205       718.566         6.963         0.510         3.363
  sub68                      276.714       513.393         5.318         0.356         2.539
  sub69                      247.676       464.012         4.658         0.325         2.225
  sub70                      413.256       778.342         8.287         0.572         3.877
  sub71                      173.740       327.842         3.597         0.206         1.720
  sub72                      136.329       239.316         2.558         0.174         1.230
  1                          280.724       531.718         5.751         0.398         2.660
  2                           35.485        61.812         1.030         0.062         0.437
  ------------------------------------------------------------------------------------------
  System                    3783.006      6994.507        73.566         4.996        34.873
  
  
  ******************
  Node Depth Summary
  ******************
  
  ---------------------------------------------------------------------------------
                                 Average  Maximum  Maximum  Time of Max    Reported
                                   Depth    Depth      HGL   Occurrence   Max Depth
  Node                 Type       Meters   Meters   Meters  days hr:min      Meters
  ---------------------------------------------------------------------------------
  WS02001211           JUNCTION     0.76     0.81     5.65     0  03:10        0.81
  WS02001212           JUNCTION     0.47     0.53     5.60     0  03:09        0.53
  WS02001213           JUNCTION     0.70     0.80     5.56     0  03:08        0.80
  WS02003069           JUNCTION     0.49     0.64     5.23     0  03:07        0.64
  WS02003072           JUNCTION     0.55     0.69     5.07     0  03:08        0.69
  WS02003073           JUNCTION     0.33     0.43     4.50     0  03:08        0.43
  WS02003060           JUNCTION     0.43     0.57     5.50     0  03:06        0.57
  WS02003066           JUNCTION     0.23     0.34     5.89     0  03:05        0.34
  WS02003059           JUNCTION     0.75     0.85     5.54     0  03:08        0.85
  WS02003067           JUNCTION     0.57     0.76     6.08     0  03:05        0.76
  WS02004401           JUNCTION     0.67     1.03     7.03     0  03:03        1.03
  WS02004402           JUNCTION     0.70     1.04     7.00     0  03:03        1.04
  WS02004403           JUNCTION     0.72     1.04     6.97     0  03:03        1.03
  WS02004404           JUNCTION     0.80     1.10     6.95     0  03:03        1.09
  WS02004406           JUNCTION     0.80     1.06     6.89     0  03:03        1.06
  WS02004409           JUNCTION     0.48     0.79     6.56     0  03:05        0.79
  WS02004410           JUNCTION     0.50     0.79     6.51     0  03:05        0.79
  WS02004411           JUNCTION     0.52     0.79     6.47     0  03:05        0.79
  WS02004412           JUNCTION     0.53     0.79     6.43     0  03:05        0.79
  WS02004413           JUNCTION     0.70     0.94     6.41     0  03:05        0.94
  WS02004405           JUNCTION     0.79     1.08     6.93     0  03:03        1.08
  WS02006109           JUNCTION     0.75     1.14     7.76     0  03:02        1.13
  WS02006110           JUNCTION     0.74     1.03     7.62     0  03:01        1.03
  WS02006111           JUNCTION     0.22     0.44     7.15     0  03:03        0.44
  WS02006112           JUNCTION     0.84     1.26     7.14     0  03:03        1.25
  WS02006113           JUNCTION     0.33     0.53     7.42     0  03:01        0.52
  WS02006115           JUNCTION     0.56     0.95     7.09     0  03:03        0.95
  WS02006116           JUNCTION     0.64     1.03     7.07     0  03:03        1.03
  WS02006230           JUNCTION     0.72     1.24     7.99     0  03:02        1.24
  WS02006231           JUNCTION     0.48     0.90     8.03     0  03:02        0.89
  WS02006232           JUNCTION     0.61     1.02     8.06     0  03:02        1.01
  WS02006234           JUNCTION     0.53     1.03     8.19     0  05:32        0.98
  WS02006235           JUNCTION     0.56     1.14     8.31     0  05:32        1.05
  WS02006238           JUNCTION     0.58     1.18     8.33     0  05:32        1.08
  WS02006240           JUNCTION     0.47     1.20     8.49     0  05:32        1.01
  WS02006242           JUNCTION     0.52     1.33     8.60     0  05:32        1.08
  WS02006243           JUNCTION     0.39     1.34     8.76     0  05:32        0.97
  WS02006245           JUNCTION     0.36     1.29     8.77     0  05:32        0.94
  WS02006247           JUNCTION     0.37     1.26     8.76     0  05:32        0.96
  WS02006248           JUNCTION     0.31     1.10     8.69     0  04:01        0.90
  WS02006249           JUNCTION     0.34     1.09     8.69     0  04:00        0.91
  WS02006239           JUNCTION     0.53     1.17     8.38     0  05:32        1.06
  WS02006251           JUNCTION     0.31     0.92     8.59     0  04:03        0.88
  WS02006252           JUNCTION     0.22     0.59     8.83     0  03:59        0.59
  WS02006253           JUNCTION     0.34     0.94     8.59     0  04:02        0.94
  WS02006256           JUNCTION     1.64     2.35     9.28     0  00:00        2.35
  WS02004138           JUNCTION     0.19     0.20     7.45     0  00:00        0.19
  WS02004139           JUNCTION     0.71     0.76     5.67     0  03:10        0.76
  WS02004407           JUNCTION     0.22     0.34     6.66     0  03:04        0.34
  WS02006228           JUNCTION     0.75     1.23     7.88     0  03:02        1.22
  WS02006229           JUNCTION     0.73     1.25     7.95     0  03:02        1.25
  WS02006280           JUNCTION     0.07     0.20     8.47     0  03:02        0.20
  WS02006284           JUNCTION     0.37     0.56     8.96     0  03:02        0.56
  WS02006287           JUNCTION     0.10     0.30     9.25     0  03:01        0.30
  WSF200               JUNCTION     0.21     0.37     5.60     0  03:06        0.37
  HS02004901           JUNCTION     0.13     0.29    10.12     0  03:01        0.29
  HS02004881           JUNCTION     0.01     0.04     9.07     0  03:01        0.04
  HS02004876           JUNCTION     0.04     0.12     9.15     0  03:01        0.12
  HS02004870           JUNCTION     0.02     0.07     9.35     0  03:01        0.07
  HS02004862           JUNCTION     0.02     0.08     9.46     0  03:01        0.08
  HS02004856           JUNCTION     0.08     0.13     9.55     0  03:01        0.13
  HS02004852           JUNCTION     0.01     0.05     9.56     0  03:01        0.05
  HS02004848           JUNCTION     0.01     0.05     9.65     0  03:01        0.05
  HS02004842           JUNCTION     0.33     0.38     9.65     0  03:01        0.38
  HS02004837           JUNCTION     0.03     0.07     9.65     0  03:01        0.07
  HS02004830           JUNCTION     0.04     0.08     9.55     0  03:01        0.08
  HS02004824           JUNCTION     0.02     0.06     9.47     0  03:01        0.06
  HS02004817           JUNCTION     0.44     0.61     9.45     0  03:01        0.61
  HS02004807           JUNCTION     0.13     0.28     9.45     0  03:01        0.28
  HS02004802           JUNCTION     0.16     0.31     9.44     0  03:01        0.31
  HS02004799           JUNCTION     0.12     0.35     9.56     0  03:01        0.35
  HS02004792           JUNCTION     0.03     0.15     9.67     0  03:01        0.15
  HS02004788           JUNCTION     0.03     0.11    10.01     0  03:01        0.11
  HS02004785           JUNCTION     0.05     0.18    10.09     0  03:01        0.18
  HS02004777           JUNCTION     0.15     0.31    10.11     0  03:01        0.31
  HS02004770           JUNCTION     0.12     0.29    10.12     0  03:01        0.29
  HS02004480           JUNCTION     0.08     0.28     9.52     0  03:01        0.28
  HS02004479           JUNCTION     0.12     0.32     9.52     0  03:01        0.32
  HS02004478           JUNCTION     0.06     0.20     9.42     0  03:01        0.20
  YS02001745           JUNCTION     0.74     0.93     8.45     0  03:08        0.93
  YS02001748           JUNCTION     1.13     1.58     8.66     0  02:27        1.37
  YS02001751           JUNCTION     1.31     1.68     8.56     0  02:27        1.56
  YS02001754           JUNCTION     1.57     1.84     8.45     0  03:07        1.83
  YS02001762           JUNCTION     1.77     2.05     8.45     0  03:07        2.03
  YS02001765           JUNCTION     1.72     2.00     8.45     0  03:07        1.98
  YS02001767           JUNCTION     1.68     1.95     8.44     0  03:07        1.93
  YS02001770           JUNCTION     1.68     1.95     8.44     0  02:18        1.92
  YS02001774           JUNCTION     1.75     2.02     8.45     0  02:18        1.97
  YS02001779           JUNCTION     1.49     1.68     8.37     0  02:18        1.68
  YS02001882           JUNCTION     0.54     1.62     8.34     0  03:00        1.61
  YS02001884           JUNCTION     0.64     1.72     8.34     0  03:00        1.71
  YS02001759           JUNCTION     1.80     2.09     8.45     0  03:07        2.07
  YS02001887           JUNCTION     0.71     1.80     8.34     0  03:00        1.79
  YS02001890           JUNCTION     0.74     1.81     8.32     0  02:56        1.81
  YS02001898           JUNCTION     0.51     1.56     8.29     0  02:56        1.55
  YS02001901           JUNCTION     0.63     1.67     8.28     0  03:00        1.67
  YS02001904           JUNCTION     0.61     1.64     8.27     0  02:51        1.63
  YS02001907           JUNCTION     0.94     1.96     8.25     0  02:45        1.96
  YS02001910           JUNCTION     0.73     1.78     8.28     0  02:46        1.77
  YS02001915           JUNCTION     0.53     1.58     8.30     0  02:46        1.57
  YS02001918           JUNCTION     0.27     1.25     8.32     0  02:46        1.24
  YS02001619           JUNCTION     1.28     1.61     8.54     0  02:27        1.49
  YS02001629           JUNCTION     1.63     1.85     8.40     0  02:27        1.84
  YS02001641           JUNCTION     1.73     1.94     8.38     0  02:35        1.94
  YS02001644           JUNCTION     1.73     1.92     8.35     0  02:35        1.92
  YS02001652           JUNCTION     1.58     2.08     8.68     0  02:20        1.90
  YS02001655           JUNCTION     1.34     2.20     9.05     0  02:20        1.69
  YS02001920           JUNCTION     0.37     1.33     8.34     0  02:46        1.31
  YS02001923           JUNCTION     0.21     1.08     8.34     0  02:46        1.07
  YS02001926           JUNCTION     0.28     0.91     8.35     0  02:46        0.89
  YS02001929           JUNCTION     0.16     0.68     8.38     0  02:45        0.68
  YS02001658           JUNCTION     1.07     2.01     9.15     0  04:03        1.42
  YS02001661           JUNCTION     0.84     1.99     9.39     0  04:03        1.17
  YS02001664           JUNCTION     0.38     0.57     8.49     0  02:46        0.56
  YS02001622           JUNCTION     1.30     1.62     8.52     0  02:28        1.51
  YS02001633           JUNCTION     1.72     1.95     8.40     0  02:28        1.94
  YS02001649           JUNCTION     1.77     2.05     8.44     0  02:37        2.05
  YS02001757           JUNCTION     1.90     2.19     8.45     0  03:07        2.17
  YS02001895           JUNCTION     0.51     1.56     8.31     0  03:00        1.56
  YS02001625           JUNCTION     1.58     1.78     8.38     0  02:27        1.78
  YS02163301           JUNCTION     1.66     1.91     8.42     0  02:28        1.88
  YS02163601           JUNCTION     1.77     1.99     8.39     0  02:35        1.98
  YS02164001           JUNCTION     1.71     1.92     8.38     0  02:35        1.91
  YS02001647           JUNCTION     1.56     1.81     8.42     0  02:37        1.79
  YSB1154              JUNCTION     0.26     0.47     9.52     0  03:01        0.47
  YSB6556              JUNCTION     0.15     0.35     9.52     0  03:01        0.35
  YSB1174              JUNCTION     0.21     0.41     9.52     0  03:01        0.41
  YSB1171              JUNCTION     0.41     0.62     9.52     0  03:01        0.62
  YS02006553           JUNCTION     0.94     1.97     8.25     0  02:58        1.96
  YS02006561           JUNCTION     0.30     1.08     7.74     0  02:48        1.07
  YS02006556           JUNCTION     0.91     1.92     8.23     0  02:59        1.92
  YS02006558           JUNCTION     0.95     1.96     8.23     0  02:59        1.95
  YS02001783           JUNCTION     0.53     1.47     7.61     0  02:47        1.47
  YS02001784           JUNCTION     0.55     1.60     7.66     0  02:34        1.40
  YS02001786           JUNCTION     0.49     1.59     7.62     0  02:34        1.25
  YS02001788           JUNCTION     0.43     1.52     7.50     0  02:34        1.12
  YS02001790           JUNCTION     0.56     1.96     7.60     0  04:37        1.29
  YS02001791           JUNCTION     0.53     2.72     8.19     0  04:36        1.36
  YS02001793           JUNCTION     0.74     2.82     7.65     0  04:35        1.80
  WSC                  OUTFALL      0.33     0.43     1.10     0  03:09        0.43
  JK-storage           STORAGE      3.02     5.80     6.60     0  02:01        5.80
  CC-storage           STORAGE      1.16     1.44     8.44     0  03:07        1.44
  XR-storage           STORAGE      6.64     7.72     5.72     0  02:52        7.72
  
  
  *******************
  Node Inflow Summary
  *******************
  
  -------------------------------------------------------------------------------------------------
                                  Maximum  Maximum                  Lateral       Total        Flow
                                  Lateral    Total  Time of Max      Inflow      Inflow     Balance
                                   Inflow   Inflow   Occurrence      Volume      Volume       Error
  Node                 Type           LPS      LPS  days hr:min    10^6 ltr    10^6 ltr     Percent
  -------------------------------------------------------------------------------------------------
  WS02001211           JUNCTION      7.35   389.58     0  03:17       0.207          10       0.404
  WS02001212           JUNCTION      0.00   391.79     0  03:18           0        9.99       0.246
  WS02001213           JUNCTION      0.00   393.66     0  03:17           0        9.96       0.287
  WS02003069           JUNCTION      0.32  1108.80     0  03:07     0.00902        18.2       0.195
  WS02003072           JUNCTION      0.00  1108.81     0  03:07           0        18.2       0.233
  WS02003073           JUNCTION      1.82  1110.78     0  03:08      0.0514        18.2       0.270
  WS02003060           JUNCTION     16.53  1108.34     0  03:06       0.466        18.2       0.183
  WS02003066           JUNCTION      0.00   711.67     0  03:06           0         7.9       0.058
  WS02003059           JUNCTION      0.00   396.29     0  03:17           0        9.93       0.405
  WS02003067           JUNCTION      0.00   711.11     0  03:05           0        7.91       0.121
  WS02004401           JUNCTION      0.00   714.35     0  03:04           0        8.14       0.259
  WS02004402           JUNCTION      0.00   714.76     0  03:04           0        8.12       0.244
  WS02004403           JUNCTION      0.00   715.18     0  03:04           0         8.1       0.223
  WS02004404           JUNCTION      0.16   715.40     0  03:04     0.00457        8.09       0.168
  WS02004406           JUNCTION      0.00   715.52     0  03:04           0        8.05       0.412
  WS02004409           JUNCTION      0.00   715.02     0  03:04           0        8.01       0.207
  WS02004410           JUNCTION      0.00   713.53     0  03:04           0           8       0.236
  WS02004411           JUNCTION      0.00   712.42     0  03:04           0        7.98       0.243
  WS02004412           JUNCTION      0.00   711.56     0  03:05           0        7.96       0.262
  WS02004413           JUNCTION      0.00   711.13     0  03:05           0        7.94       0.389
  WS02004405           JUNCTION      0.04   715.49     0  03:04     0.00107        8.07       0.251
  WS02006109           JUNCTION      1.23   702.29     0  03:02      0.0347        8.18       0.240
  WS02006110           JUNCTION      0.00   702.26     0  03:02           0        8.16       0.219
  WS02006111           JUNCTION      0.00   726.78     0  03:01           0        8.14       0.049
  WS02006112           JUNCTION     16.72   717.67     0  03:03      0.0747        8.21       0.365
  WS02006113           JUNCTION      0.00   702.53     0  03:02           0        8.14       0.110
  WS02006115           JUNCTION      0.00   717.73     0  03:03           0        8.18       0.245
  WS02006116           JUNCTION      0.00   715.87     0  03:03           0        8.16       0.210
  WS02006230           JUNCTION     10.28   500.88     0  04:02        0.29        6.02       0.224
  WS02006231           JUNCTION      0.00   490.24     0  04:03           0        5.74       0.145
  WS02006232           JUNCTION      0.00   490.26     0  04:03           0        5.75       0.271
  WS02006234           JUNCTION      0.00   490.28     0  04:03           0        5.76       0.107
  WS02006235           JUNCTION      0.00   490.44     0  04:03           0        5.86       0.168
  WS02006238           JUNCTION      0.00   287.32     0  04:03           0        2.35       0.246
  WS02006240           JUNCTION      0.00   287.12     0  04:03           0        2.28       0.387
  WS02006242           JUNCTION      0.00   287.08     0  04:03           0        2.25       0.428
  WS02006243           JUNCTION      0.00   287.06     0  04:03           0        2.23       0.240
  WS02006245           JUNCTION      0.00   309.50     0  05:30           0        2.23       0.243
  WS02006247           JUNCTION      0.00   336.89     0  05:30           0        2.22       0.095
  WS02006248           JUNCTION      0.00   354.59     0  04:00           0        2.22      -0.082
  WS02006249           JUNCTION      0.00   372.94     0  04:00           0        2.22       0.147
  WS02006239           JUNCTION      0.00   287.21     0  04:03           0        2.31       0.258
  WS02006251           JUNCTION      0.08   400.01     0  05:30     0.00217        2.26      -0.027
  WS02006252           JUNCTION      0.00   399.89     0  04:00           0         1.8       0.006
  WS02006253           JUNCTION      1.99   122.90     0  04:01     0.00928       0.454      -0.049
  WS02006256           JUNCTION      0.00   983.00     0  02:10           0        9.59      -0.008
  WS02004138           JUNCTION      0.00   380.00     0  00:00           0        9.86       0.065
  WS02004139           JUNCTION      0.32   395.85     0  00:00     0.00905        9.86       0.462
  WS02004407           JUNCTION      0.00   716.06     0  03:03           0        8.02       0.090
  WS02006228           JUNCTION      0.00   701.10     0  03:02           0        8.16       0.182
  WS02006229           JUNCTION      0.00   698.82     0  03:02           0        8.18       0.171
  WS02006280           JUNCTION      0.00   413.62     0  03:02           0        2.17       0.003
  WS02006284           JUNCTION      0.10   413.57     0  03:02      0.0027        2.17       0.041
  WS02006287           JUNCTION      0.00   413.22     0  03:01           0        2.17       0.034
  WSF200               JUNCTION      0.00   711.87     0  03:06           0        7.89       0.055
  HS02004901           JUNCTION     20.36    20.36     0  03:01      0.0901      0.0904       1.991
  HS02004881           JUNCTION      7.95    84.19     0  03:01      0.0378        0.41       0.094
  HS02004876           JUNCTION     14.96    76.75     0  03:01      0.0728       0.373       0.147
  HS02004870           JUNCTION     14.89    62.15     0  03:01      0.0716         0.3       0.038
  HS02004862           JUNCTION     15.28    47.68     0  03:01      0.0788       0.229       0.076
  HS02004856           JUNCTION     11.18    32.73     0  03:01      0.0539       0.152       0.961
  HS02004852           JUNCTION      0.00    21.94     0  03:01           0      0.0979       0.059
  HS02004848           JUNCTION     34.61    34.61     0  03:01       0.174       0.174       0.029
  HS02004842           JUNCTION      0.00    12.41     0  03:01           0      0.0895      16.998
  HS02004837           JUNCTION     31.84    43.95     0  03:01       0.303        0.38       0.215
  HS02004830           JUNCTION      0.15    43.85     0  03:01     0.00423        0.37       0.334
  HS02004824           JUNCTION     42.39    85.90     0  03:01       0.225       0.594       0.092
  HS02004817           JUNCTION      0.60    86.28     0  03:01      0.0169        0.61       2.809
  HS02004807           JUNCTION     27.35   112.32     0  03:01       0.131       0.725       0.605
  HS02004802           JUNCTION      0.00   111.37     0  03:01           0       0.723       0.549
  HS02004799           JUNCTION     22.08   258.91     0  03:01       0.107        1.24       0.223
  HS02004792           JUNCTION    102.90   238.01     0  03:01        0.47        1.14       0.037
  HS02004788           JUNCTION     34.16   135.94     0  03:01       0.199       0.669       0.059
  HS02004785           JUNCTION      0.15   103.53     0  03:01     0.00423       0.471       0.106
  HS02004777           JUNCTION      0.03   104.16     0  03:01    0.000846       0.472       1.115
  HS02004770           JUNCTION     85.35   105.11     0  03:01       0.385       0.473       0.660
  HS02004480           JUNCTION      0.00   302.44     0  03:01           0        1.46       0.075
  HS02004479           JUNCTION      0.00    44.91     0  03:02           0       0.232       0.318
  HS02004478           JUNCTION      0.00   413.08     0  03:01           0        2.17       0.013
  YS02001745           JUNCTION    336.84   396.08     0  02:27        2.69         2.7       0.427
  YS02001748           JUNCTION      0.04   565.52     0  02:27     0.00127        2.69       0.805
  YS02001751           JUNCTION      0.01   359.37     0  02:17     0.00031        2.65       0.912
  YS02001754           JUNCTION      0.26   341.40     0  03:01     0.00733        2.64       0.948
  YS02001762           JUNCTION      0.00   291.36     0  02:39           0        2.09       1.027
  YS02001765           JUNCTION      0.00   291.28     0  02:39           0        2.09       1.185
  YS02001767           JUNCTION      0.54   291.36     0  02:38      0.0151        2.11       1.714
  YS02001770           JUNCTION    415.94   621.95     0  03:08        3.01        3.62       0.884
  YS02001774           JUNCTION      0.00   622.31     0  03:08           0        2.11       1.204
  YS02001779           JUNCTION      0.01   622.54     0  03:09    0.000141        2.07       0.759
  YS02001882           JUNCTION      0.00    33.53     0  02:35           0      0.0173      15.066
  YS02001884           JUNCTION      0.00    65.77     0  02:35           0      0.0539      12.801
  YS02001759           JUNCTION    399.49   574.79     0  02:39        2.78        4.22       0.546
  YS02001887           JUNCTION    494.68   495.47     0  03:01        3.19        3.22       0.266
  YS02001890           JUNCTION      0.00   495.05     0  03:01           0        3.18       0.293
  YS02001898           JUNCTION      0.00   495.28     0  03:01           0        3.16       0.098
  YS02001901           JUNCTION      0.00   495.06     0  03:01           0        3.16       0.222
  YS02001904           JUNCTION      0.00   495.08     0  03:00           0        3.16       0.201
  YS02001907           JUNCTION      0.00   941.05     0  03:01           0        7.02       0.347
  YS02001910           JUNCTION      0.00   449.41     0  03:00           0        3.87       0.305
  YS02001915           JUNCTION    296.36   449.21     0  03:00        2.25         3.9       0.159
  YS02001918           JUNCTION      0.00   210.79     0  03:30           0        1.65       0.077
  YS02001619           JUNCTION    290.53   290.53     0  03:01        2.24        2.24       0.549
  YS02001629           JUNCTION      0.00   218.76     0  02:17           0        1.69       1.736
  YS02001641           JUNCTION      0.00   398.86     0  02:34           0        4.25       0.498
  YS02001644           JUNCTION    321.01  1397.12     0  03:01        2.59        10.9       0.251
  YS02001652           JUNCTION      0.00   370.01     0  03:01           0        2.35       1.012
  YS02001655           JUNCTION      0.15   398.66     0  02:18     0.00434        2.37       1.017
  YS02001920           JUNCTION      2.87   202.91     0  02:46      0.0809        1.64       0.168
  YS02001923           JUNCTION      0.04   223.73     0  02:46     0.00106        1.56       0.051
  YS02001926           JUNCTION      0.05   171.58     0  02:46     0.00147        1.56       0.211
  YS02001929           JUNCTION    151.13   151.13     0  03:01        1.56        1.56       0.038
  YS02001658           JUNCTION      0.00   593.41     0  02:23           0        2.41       0.881
  YS02001661           JUNCTION      0.00   642.34     0  02:39           0        2.82      -0.285
  YS02001664           JUNCTION    361.21   361.21     0  03:01        2.38        2.81       0.245
  YS02001622           JUNCTION      0.00   291.09     0  03:01           0        2.22       1.445
  YS02001633           JUNCTION    326.74   397.30     0  02:34        2.66        4.31       0.751
  YS02001649           JUNCTION      0.00   826.55     0  02:35           0        6.27       0.595
  YS02001757           JUNCTION      0.00  1577.88     0  02:35           0        8.59       1.087
  YS02001895           JUNCTION      0.00   495.01     0  03:01           0        3.17       0.164
  YS02001625           JUNCTION      0.00   290.67     0  03:01           0        2.19       1.805
  YS02163301           JUNCTION      0.00   218.29     0  02:22           0        1.67       1.457
  YS02163601           JUNCTION      0.11   398.36     0  02:34      0.0031        4.27       0.706
  YS02164001           JUNCTION      0.00   398.92     0  02:34           0        4.25       0.476
  YS02001647           JUNCTION      0.00   733.95     0  03:10           0        5.53       0.513
  YSB1154              JUNCTION     26.18    26.18     0  03:01       0.129        0.13       1.132
  YSB6556              JUNCTION      0.00    25.82     0  03:01           0        0.13       0.969
  YSB1174              JUNCTION     20.52    20.52     0  03:01      0.0948      0.0952       1.369
  YSB1171              JUNCTION      0.00    45.30     0  03:01           0       0.231       2.821
  YS02006553           JUNCTION      0.00   703.68     0  03:31           0        6.56       0.240
  YS02006561           JUNCTION      0.00   982.46     0  03:01           0        9.44       0.005
  YS02006556           JUNCTION      0.00   703.61     0  03:31           0        6.57       0.173
  YS02006558           JUNCTION    433.40   983.42     0  02:59        2.93        9.47       0.056
  YS02001783           JUNCTION      0.00   982.37     0  03:00           0        9.44       0.022
  YS02001784           JUNCTION      1.06   983.38     0  03:01      0.0299        9.47       0.037
  YS02001786           JUNCTION      0.06   983.36     0  03:00     0.00159        9.47       0.036
  YS02001788           JUNCTION      0.07   983.50     0  03:00       0.002        9.47       0.025
  YS02001790           JUNCTION      0.15   983.56     0  03:00     0.00437        9.47       0.017
  YS02001791           JUNCTION      0.00   983.50     0  03:00           0        9.47       0.013
  YS02001793           JUNCTION      0.00   983.97     0  02:59           0        9.47      -0.013
  WSC                  OUTFALL       0.00  1110.98     0  03:09           0        18.1       0.000
  JK-storage           STORAGE       0.00   983.77     0  02:59           0        9.62     -10.249
  CC-storage           STORAGE       0.00  1577.79     0  02:35           0        5.95       1.110
  XR-storage           STORAGE     844.76   844.76     0  03:01        11.8        12.4      -0.002
  
  
  **********************
  Node Surcharge Summary
  **********************
  
  Surcharging occurs when water rises above the top of the highest conduit.
  ---------------------------------------------------------------------
                                               Max. Height   Min. Depth
                                   Hours       Above Crown    Below Rim
  Node                 Type      Surcharged         Meters       Meters
  ---------------------------------------------------------------------
  WS02004401           JUNCTION        0.10          0.028        1.632
  WS02004402           JUNCTION        0.16          0.039        1.701
  WS02004403           JUNCTION        0.17          0.038        1.992
  WS02004404           JUNCTION        0.38          0.096        2.684
  WS02004406           JUNCTION        0.30          0.060        2.390
  WS02004405           JUNCTION        0.34          0.081        2.719
  WS02006109           JUNCTION        2.28          0.322        1.498
  WS02006110           JUNCTION        0.97          0.124        1.726
  WS02006112           JUNCTION        1.25          0.257        1.423
  WS02006230           JUNCTION        0.35          0.162        1.408
  WS02006231           JUNCTION        0.70          0.193        1.337
  WS02006232           JUNCTION        2.00          0.322        1.158
  WS02006234           JUNCTION        1.04          0.314        0.926
  WS02006235           JUNCTION        1.38          0.435        0.855
  WS02006238           JUNCTION        1.49          0.465        0.965
  WS02006240           JUNCTION        0.78          0.488        0.902
  WS02006242           JUNCTION        0.89          0.602        0.218
  WS02006243           JUNCTION        0.28          0.631        0.139
  WS02006245           JUNCTION        0.19          0.575        0.275
  WS02006247           JUNCTION        0.19          0.552        0.208
  WS02006248           JUNCTION        0.13          0.380        0.000
  WS02006249           JUNCTION        0.15          0.390        0.000
  WS02006239           JUNCTION        0.98          0.432        0.858
  WS02006252           JUNCTION        0.25          0.189        0.911
  WS02006256           JUNCTION        6.88          2.050        0.000
  WS02006228           JUNCTION        2.23          0.398        1.802
  YS02001748           JUNCTION        5.31          0.499        0.691
  YS02001751           JUNCTION        5.48          0.681        0.519
  YS02001754           JUNCTION        5.69          0.790        0.360
  YS02001762           JUNCTION        5.87          1.054        0.096
  YS02001765           JUNCTION        5.84          1.001        0.099
  YS02001767           JUNCTION        5.81          0.955        0.075
  YS02001770           JUNCTION        5.80          0.920        0.000
  YS02001774           JUNCTION        5.86          1.023        0.027
  YS02001779           JUNCTION        5.67          0.680        0.000
  YS02001882           JUNCTION        0.91          0.619        0.211
  YS02001884           JUNCTION        0.93          0.660        0.210
  YS02001759           JUNCTION        5.89          1.090        0.120
  YS02001887           JUNCTION        1.00          0.747        0.203
  YS02001890           JUNCTION        1.02          0.760        0.000
  YS02001898           JUNCTION        0.87          0.528        0.212
  YS02001901           JUNCTION        0.97          0.675        0.195
  YS02001904           JUNCTION        0.94          0.636        0.214
  YS02001907           JUNCTION        1.80          0.950        0.000
  YS02001910           JUNCTION        1.07          0.776        0.324
  YS02001915           JUNCTION        0.89          0.583        0.417
  YS02001918           JUNCTION        0.71          0.253        0.557
  YS02001619           JUNCTION        5.47          0.610        0.000
  YS02001629           JUNCTION        5.47          0.470        0.000
  YS02001641           JUNCTION        5.85          0.940        0.160
  YS02001644           JUNCTION        5.85          0.920        0.000
  YS02001652           JUNCTION        5.73          1.050        0.080
  YS02001655           JUNCTION        5.50          1.200        0.000
  YS02001920           JUNCTION        0.74          0.328        0.812
  YS02001658           JUNCTION        5.34          1.013        0.287
  YS02001661           JUNCTION        0.19          0.915        0.475
  YS02001622           JUNCTION        5.50          0.620        0.000
  YS02001633           JUNCTION        5.83          0.927        0.133
  YS02001649           JUNCTION        5.87          1.050        0.000
  YS02001757           JUNCTION        5.98          1.185        0.025
  YS02001895           JUNCTION        0.88          0.561        0.189
  YS02001625           JUNCTION        5.76          0.780        0.000
  YS02163301           JUNCTION        5.81          0.908        0.122
  YS02163601           JUNCTION        5.87          0.991        0.089
  YS02164001           JUNCTION        5.84          0.921        0.179
  YS02001647           JUNCTION        5.75          0.810        0.090
  YS02006553           JUNCTION        1.87          0.965        0.225
  YS02006561           JUNCTION        0.77          0.278        0.872
  YS02006556           JUNCTION        1.30          0.882        0.468
  YS02006558           JUNCTION        1.26          0.864        0.536
  YS02001783           JUNCTION        1.06          0.670        0.930
  YS02001784           JUNCTION        1.04          0.796        0.694
  YS02001786           JUNCTION        0.98          0.788        0.642
  YS02001788           JUNCTION        0.93          0.720        0.760
  YS02001790           JUNCTION        2.09          1.157        0.000
  YS02001791           JUNCTION        2.21          1.920        0.000
  YS02001793           JUNCTION        2.53          1.820        0.780
  
  
  *********************
  Node Flooding Summary
  *********************
  
  Flooding refers to all water that overflows a node, whether it ponds or not.
  --------------------------------------------------------------------------
                                                             Total   Maximum
                                 Maximum   Time of Max       Flood    Ponded
                        Hours       Rate    Occurrence      Volume     Depth
  Node                 Flooded       LPS   days hr:min    10^6 ltr    Meters
  --------------------------------------------------------------------------
  WS02006248              0.01      9.90      0  04:01       0.000     0.000
  WS02006249              0.01     79.49      0  04:00       0.000     0.000
  WS02006256              3.41    769.48      0  03:03       5.996     0.000
  YS02001770              0.01      6.28      0  02:18       0.000     0.000
  YS02001779              3.06    622.49      0  03:08       2.054     0.000
  YS02001890              0.01      0.75      0  03:00       0.000     0.000
  YS02001907              0.58    392.26      0  03:01       0.443     0.000
  YS02001619              0.01     14.40      0  02:27       0.000     0.000
  YS02001629              0.01     17.87      0  02:28       0.000     0.000
  YS02001644              5.09   1397.01      0  03:01       9.432     0.000
  YS02001655              0.01    203.01      0  02:20       0.000     0.000
  YS02001622              0.01      6.27      0  02:28       0.000     0.000
  YS02001649              0.02     25.92      0  02:51       0.001     0.000
  YS02001625              1.19    235.06      0  03:01       0.465     0.000
  YS02001790              0.01    110.87      0  06:23       0.000     0.000
  YS02001791              0.01    190.34      0  04:36       0.000     0.000
  JK-storage              1.11    818.81      0  02:39       1.130     0.000
  XR-storage              3.10    464.70      0  03:01       1.932     0.000
  
  
  **********************
  Storage Volume Summary
  **********************
  
  --------------------------------------------------------------------------------------------------
                         Average     Avg  Evap Exfil       Maximum     Max    Time of Max    Maximum
                          Volume    Pcnt  Pcnt  Pcnt        Volume    Pcnt     Occurrence    Outflow
  Storage Unit           1000 m3    Full  Loss  Loss       1000 m3    Full    days hr:min        LPS
  --------------------------------------------------------------------------------------------------
  JK-storage               0.152      52     0     0         0.291     100       0  02:01     983.00
  CC-storage               3.232      21     0     0         4.000      25       0  03:07     399.89
  XR-storage               0.797      86     0     0         0.926     100       0  02:52     380.00
  
  
  ***********************
  Outfall Loading Summary
  ***********************
  
  ---------------------------------------------------------------------------------------------------------------------------------
                         Flow       Avg       Max       Total         Total         Total         Total         Total         Total
                         Freq      Flow      Flow      Volume           COD            SS            TN            TP         NH4-N
  Outfall Node           Pcnt       LPS       LPS    10^6 ltr            kg            kg            kg            kg            kg
  ---------------------------------------------------------------------------------------------------------------------------------
  WSC                   99.98    703.09   1110.98      18.147      2214.559      3773.599       148.692        17.644        90.365
  ---------------------------------------------------------------------------------------------------------------------------------
  System                99.98    703.09   1110.98      18.147      2214.559      3773.599       148.692        17.644        90.365
  
  
  ********************
  Link Flow Summary
  ********************
  
  -----------------------------------------------------------------------------
                                 Maximum  Time of Max   Maximum    Max/    Max/
                                  |Flow|   Occurrence   |Veloc|    Full    Full
  Link                 Type          LPS  days hr:min     m/sec    Flow   Depth
  -----------------------------------------------------------------------------
  WS02003066WSF200     CONDUIT    711.87     0  03:06      2.87    0.12    0.27
  WS02006287WS02006284 CONDUIT    413.47     0  03:02      2.04    0.19    0.30
  WS02006284WS02006280 CONDUIT    413.62     0  03:02      2.28    0.17    0.28
  WS02006280WS02006229 CONDUIT    413.66     0  03:02      3.68    0.09    0.20
  WS02006229WS02006228 CONDUIT    701.10     0  03:02      1.39    2.32    1.00
  WS02006256WS02006235 CONDUIT    288.92     0  00:00      4.23    3.06    1.00
  WS02006253WS02006251 CONDUIT    117.57     0  04:01      0.60    0.35    1.00
  WS02006252WS02006251 CONDUIT    399.93     0  05:30      3.18    1.47    1.00
  WS02006251WS02006249 CONDUIT    372.94     0  04:00      1.08    1.08    1.00
  WS02006249WS02006248 CONDUIT    354.59     0  04:00      1.10    1.94    1.00
  WS02006248WS02006247 CONDUIT    336.89     0  05:30      1.02    0.73    1.00
  WS02006247WS02006245 CONDUIT    309.50     0  05:30      0.95    2.45    1.00
  WS02006245WS02006243 CONDUIT    287.06     0  04:03      1.05    0.85    1.00
  WS02006243WS02006242 CONDUIT    287.08     0  04:03      0.91    0.61    1.00
  WS02006242WS02006240 CONDUIT    287.12     0  04:03      0.91    1.14    1.00
  WS02006240WS02006239 CONDUIT    287.21     0  04:03      0.94    0.90    1.00
  WS02006239WS02006238 CONDUIT    287.32     0  04:03      0.87    0.92    1.00
  WS02006238WS02006235 CONDUIT    287.55     0  04:03      1.45    0.64    1.00
  WS02006235WS02006234 CONDUIT    490.28     0  04:03      1.27    5.17    1.00
  WS02006234WS02006232 CONDUIT    490.26     0  04:03      1.39    0.99    1.00
  WS02006232WS02006231 CONDUIT    490.24     0  04:03      1.27    1.03    1.00
  WS02006231WS02006230 CONDUIT    490.60     0  04:02      1.34    7.44    1.00
  WS02006230WS02006229 CONDUIT    500.61     0  04:03      1.30   11.14    1.00
  WS02006228WS02006109 CONDUIT    701.06     0  03:02      1.39    3.06    1.00
  WS02006116WS02004401 CONDUIT    714.35     0  03:04      1.00    0.98    1.00
  WS02006115WS02006116 CONDUIT    715.87     0  03:03      1.02    0.92    0.96
  WS02006113WS02006111 CONDUIT    726.78     0  03:01      2.58    0.87    0.60
  WS02006112WS02006115 CONDUIT    717.73     0  03:03      0.92    0.42    0.97
  WS02006111WS02006112 CONDUIT    705.08     0  03:03      1.70    0.34    0.77
  WS02006110WS02006113 CONDUIT    702.53     0  03:02      1.59    0.64    0.83
  WS02006109WS02006110 CONDUIT    702.26     0  03:02      1.40    1.35    1.00
  WS02004411WS02004412 CONDUIT    711.56     0  03:05      1.07    1.01    0.79
  WS02004401WS02004402 CONDUIT    714.76     0  03:04      1.00    0.86    1.00
  WS02004413WS02003067 CONDUIT    711.11     0  03:05      1.30    0.30    0.66
  WS02004412WS02004413 CONDUIT    711.13     0  03:05      0.99    0.48    0.86
  WS02004410WS02004411 CONDUIT    712.42     0  03:04      1.07    0.97    0.79
  WS02004409WS02004410 CONDUIT    713.53     0  03:04      1.08    0.92    0.79
  WS02004407WS02004409 CONDUIT    715.02     0  03:04      1.57    0.25    0.56
  WS02004406WS02004407 CONDUIT    716.06     0  03:03      1.28    0.32    0.67
  WS02004405WS02004406 CONDUIT    715.52     0  03:04      1.10    1.41    1.00
  WS02004404WS02004405 CONDUIT    715.45     0  03:04      1.15    7.01    1.00
  WS02004403WS02004404 CONDUIT    715.24     0  03:04      0.98    0.52    1.00
  WS02004402WS02004403 CONDUIT    715.18     0  03:04      1.02    1.03    1.00
  WS02004139WS02001211 CONDUIT    382.23     0  03:17      0.90    0.48    0.61
  WS02004138WS02004139 CONDUIT    395.52     0  00:00      3.64    0.08    0.45
  WS02003067WS02003066 CONDUIT    711.67     0  03:06      1.41    0.23    0.46
  WS02001213WS02003059 CONDUIT    396.29     0  03:17      0.89    0.65    0.81
  WS02001212WS02001213 CONDUIT    393.66     0  03:17      1.32    0.61    0.51
  WS02001211WS02001212 CONDUIT    391.79     0  03:18      0.78    0.30    0.67
  WS02003072WS02003073 CONDUIT   1108.96     0  03:08      1.83    2.40    0.53
  WS02003069WS02003072 CONDUIT   1108.81     0  03:07      1.71    0.53    0.56
  WS02003060WS02003069 CONDUIT   1108.48     0  03:07      1.94    0.43    0.50
  WS02003059WS02003060 CONDUIT    399.88     0  03:16      0.95    0.26    0.71
  HS02004901HS02004770 CONDUIT     20.52     0  03:01      0.07    0.08    0.42
  HS02004876HS02004881 CONDUIT     76.54     0  03:01      0.95    0.81    0.12
  HS02004870HS02004876 CONDUIT     61.90     0  03:01      0.65    0.04    0.14
  HS02004842HS02004848 CONDUIT     12.41     0  03:01      0.06    0.01    0.31
  HS02004837HS02004842 CONDUIT     12.97     0  03:02      0.42    0.01    0.32
  HS02004830HS02004837 CONDUIT     43.70     0  03:01      0.57    0.04    0.11
  HS02004824HS02004830 CONDUIT     43.67     0  03:01      0.59    0.06    0.11
  HS02004817HS02004824 CONDUIT     85.68     0  03:01      0.26    0.04    0.48
  HS02004770HS02004777 CONDUIT    104.13     0  03:01      0.35    0.19    0.43
  HS02004799HS02004480 CONDUIT    258.30     0  03:01      0.83    0.33    0.44
  HS02004792HS02004799 CONDUIT    237.02     0  03:01      0.95    0.15    0.36
  HS02004788HS02004792 CONDUIT    135.42     0  03:01      1.06    0.09    0.18
  HS02004785HS02004788 CONDUIT    103.22     0  03:02      0.71    0.78    0.21
  HS02004777HS02004785 CONDUIT    103.38     0  03:01      0.42    0.13    0.35
  HS02004480HS02004478 CONDUIT    302.29     0  03:01      1.26    1.27    0.34
  HS02004479HS02004480 CONDUIT     46.29     0  03:02      0.32    0.04    0.43
  HS02004862HS02004870 CONDUIT     47.43     0  03:01      0.66    0.05    0.10
  HS02004848HS02004852 CONDUIT     21.94     0  03:01      0.45    0.02    0.07
  HS02004856HS02004862 CONDUIT     32.47     0  03:01      0.48    0.03    0.10
  HS02004852HS02004856 CONDUIT     21.85     0  03:02      0.25    0.02    0.13
  HS02004802HS02004478 CONDUIT    111.52     0  03:02      0.45    0.10    0.36
  HS02004478WS02006287 CONDUIT    413.22     0  03:01      1.75    0.12    0.26
  HS02004817HS02004807 CONDUIT     86.13     0  03:01      0.19    0.05    0.63
  HS02004807HS02004802 CONDUIT    111.37     0  03:01      0.38    0.21    0.42
  YS02001759YS02001757 CONDUIT    574.86     0  02:39      0.73    0.41    1.00
  YS02001762YS02001759 CONDUIT    291.64     0  02:39      0.37    0.34    1.00
  YS02001765YS02001762 CONDUIT    291.36     0  02:39      0.37    0.27    1.00
  YS02001770YS02001767 CONDUIT    290.83     0  02:38      0.37    1.15    1.00
  YS02001774YS02001770 CONDUIT    622.31     0  03:08      0.79    0.40    1.00
  YS02001779YS02001774 CONDUIT    622.53     0  03:09      0.79    0.31    1.00
  YS02001649YS02001757 CONDUIT    826.18     0  02:35      1.05    0.50    1.00
  YS02001767YS02001765 CONDUIT    291.28     0  02:39      0.37    0.37    1.00
  YS02006561YS02001783 CONDUIT    982.37     0  03:00      2.15    0.51    1.00
  YS02001783YS02001784 CONDUIT    982.32     0  03:01      1.95    1.35    1.00
  YS02001784YS02001785 CONDUIT    983.31     0  03:00      1.96    2.29    1.00
  YS02001788YS02001790 CONDUIT    983.41     0  03:00      2.44    0.72    1.00
  YS02001790YS02001791 CONDUIT    983.50     0  03:00      2.91    1.07    1.00
  YS02001791YS02001793 CONDUIT    983.97     0  02:59      5.76    0.42    1.00
  YS02001910YS02001907 CONDUIT    449.39     0  03:00      0.57    0.25    1.00
  YS02001786YS02001788 CONDUIT    983.42     0  03:00      2.31    1.89    1.00
  YS02001915YS02001910 CONDUIT    449.41     0  03:00      0.59    0.22    1.00
  YS02001918YS02001915 CONDUIT    246.49     0  03:31      0.44    0.14    1.00
  YS02001923YS02001920 CONDUIT    200.04     0  02:46      0.72    0.09    1.00
  YS02001926YS02001923 CONDUIT    223.69     0  02:46      0.83    0.32    0.88
  YS02001929YS02001926 CONDUIT    171.53     0  02:46      0.89    0.08    0.78
  YS02001920YS02001918 CONDUIT    210.79     0  03:30      0.70    0.20    1.00
  YS02001629YS02163301 CONDUIT    218.29     0  02:22      0.28    0.27    1.00
  YS02001619YS02001622 CONDUIT    291.09     0  03:01      0.61    0.43    1.00
  YS02001622YS02001625 CONDUIT    290.67     0  03:01      0.37    0.16    1.00
  YS02001625YS02001629 CONDUIT    218.76     0  02:17      0.28    0.10    1.00
  YS02163301YS02001633 CONDUIT    218.01     0  02:22      0.28    0.20    1.00
  YS02163601YS02164001 CONDUIT    398.92     0  02:34      0.51    0.35    1.00
  YS02164001YS02001641 CONDUIT    398.86     0  02:34      0.51    0.54    1.00
  YS02001641YS02001644 CONDUIT    399.56     0  02:29      0.51    1.29    1.00
  YS02001647YS02001649 CONDUIT    733.95     0  03:10      0.93    0.39    1.00
  YS02006553YS02006556 CONDUIT    703.61     0  03:31      0.90    0.60    1.00
  YS02006556YS02006558 CONDUIT    704.95     0  03:31      0.90    0.56    1.00
  YSB6556YSB1171       CONDUIT     25.75     0  03:03      0.09    0.03    0.70
  YS02001907YS02006553 CONDUIT    703.68     0  03:31      0.78    0.83    1.00
  YS02006558YS02006561 CONDUIT    982.46     0  03:01      3.47    2.17    1.00
  YS02001633YS02163601 CONDUIT    398.25     0  02:34      0.51    0.42    1.00
  YS02001644YS02001647 CONDUIT    734.48     0  03:10      0.94    0.43    1.00
  YS02001745YS02001748 CONDUIT    565.48     0  02:27      1.47    0.22    0.96
  YS02001748YS02001751 CONDUIT    359.36     0  02:17      1.06    0.18    1.00
  YS02001751YS02001754 CONDUIT    341.14     0  03:01      0.92    0.16    1.00
  YS02001754YS02001757 CONDUIT    340.93     0  03:01      0.43    0.14    1.00
  YS02001882YS02001884 CONDUIT     33.53     0  02:35      0.13    0.04    1.00
  YS02001884YS02001887 CONDUIT     65.77     0  02:35      0.09    0.09    1.00
  YS02001890YS02001895 CONDUIT    495.01     0  03:01      0.63    0.23    1.00
  YS02001895YS02001898 CONDUIT    495.28     0  03:01      0.63    0.86    1.00
  YS02001898YS02001901 CONDUIT    495.06     0  03:01      0.63    0.32    1.00
  YS02001901YS02001904 CONDUIT    495.08     0  03:00      0.63    0.77    1.00
  YS02001904YS02001907 CONDUIT    495.26     0  03:01      0.63    0.17    1.00
  YS02001887YS02001890 CONDUIT    495.05     0  03:01      0.63    0.85    1.00
  YS02001652YS02001649 CONDUIT    370.65     0  03:01      0.63    0.18    1.00
  YS02001655YS02001652 CONDUIT    370.01     0  03:01      0.98    0.18    1.00
  YS02001658YS02001655 CONDUIT    398.51     0  02:18      1.22    0.17    1.00
  YS02001661YS02001658 CONDUIT    593.41     0  02:23      1.55    0.23    1.00
  YS02001664YS02001661 CONDUIT    642.34     0  02:39      1.43    0.20    0.77
  YSB1154YSB6556       CONDUIT     25.82     0  03:01      0.17    0.05    0.59
  YSB1174YSB1171       CONDUIT     20.15     0  03:01      0.07    0.03    0.70
  YSB1171HS02004479    CONDUIT     44.91     0  03:02      0.54    0.03    0.55
  HS02004881HS02006253 CONDUIT     84.16     0  03:01      2.17    0.02    0.44
  YS02001793JiankangQianchi CONDUIT    983.77     0  02:59     16.65    0.08    1.00
  YS02001757CaochengTiaoxuchi CONDUIT   1577.79     0  02:35      2.02    0.69    1.00
  WSF200WS02003060     CONDUIT    712.39     0  03:06      1.75    0.16    0.39
  1                    CONDUIT   1110.98     0  03:09      3.42    0.39    0.43
  CC-Pump-1            PUMP       200.00     0  04:20              1.00
  CC-Pump-2            PUMP       199.95     0  04:00              1.00
  JK-Pump-1            PUMP       300.00     0  00:00              1.00
  JK-Pump-2            PUMP       683.00     0  02:10              1.00
  XR-Pump-1            PUMP        95.00     0  00:00              1.00
  XR-Pump-2            PUMP        95.00     0  00:00              1.00
  XR-Pump-3            PUMP        95.00     0  00:00              1.00
  XR-Pump-4            PUMP        95.00     0  00:00              1.00
  
  
  ***************************
  Flow Classification Summary
  ***************************
  
  -------------------------------------------------------------------------------------
                      Adjusted    ---------- Fraction of Time in Flow Class ---------- 
                       /Actual         Up    Down  Sub   Sup   Up    Down  Norm  Inlet 
  Conduit               Length    Dry  Dry   Dry   Crit  Crit  Crit  Crit  Ltd   Ctrl  
  -------------------------------------------------------------------------------------
  WS02003066WSF200        1.00   0.01  0.02  0.00  0.00  0.97  0.00  0.00  0.71  0.00
  WS02006287WS02006284    1.00   0.03  0.01  0.00  0.62  0.33  0.00  0.00  0.62  0.00
  WS02006284WS02006280    1.00   0.04  0.00  0.00  0.00  0.00  0.00  0.96  0.00  0.00
  WS02006280WS02006229    1.00   0.04  0.00  0.00  0.00  0.00  0.00  0.96  0.00  0.00
  WS02006229WS02006228    1.00   0.00  0.00  0.00  1.00  0.00  0.00  0.00  0.00  0.00
  WS02006256WS02006235    1.00   0.00  0.00  0.00  1.00  0.00  0.00  0.00  0.00  0.00
  WS02006253WS02006251    1.00   0.02  0.02  0.00  0.96  0.00  0.01  0.00  0.00  0.00
  WS02006252WS02006251    1.00   0.23  0.00  0.00  0.00  0.00  0.77  0.00  0.00  0.00
  WS02006251WS02006249    1.00   0.00  0.00  0.00  1.00  0.00  0.00  0.00  0.28  0.00
  WS02006249WS02006248    1.00   0.00  0.01  0.00  0.88  0.00  0.11  0.00  0.00  0.00
  WS02006248WS02006247    1.00   0.01  0.00  0.00  0.99  0.00  0.00  0.00  0.19  0.00
  WS02006247WS02006245    1.00   0.01  0.00  0.00  0.98  0.00  0.00  0.01  0.00  0.00
  WS02006245WS02006243    1.00   0.00  0.00  0.00  0.95  0.00  0.00  0.05  0.00  0.00
  WS02006243WS02006242    1.00   0.00  0.00  0.00  1.00  0.00  0.00  0.00  0.27  0.00
  WS02006242WS02006240    1.00   0.00  0.00  0.00  0.99  0.00  0.01  0.00  0.00  0.00
  WS02006240WS02006239    1.00   0.00  0.00  0.00  0.94  0.00  0.00  0.06  0.02  0.00
  WS02006239WS02006238    1.00   0.00  0.00  0.00  1.00  0.00  0.00  0.00  0.12  0.00
  WS02006238WS02006235    1.00   0.00  0.00  0.00  1.00  0.00  0.00  0.00  0.00  0.00
  WS02006235WS02006234    1.00   0.00  0.00  0.00  0.96  0.00  0.04  0.00  0.00  0.00
  WS02006234WS02006232    1.00   0.00  0.00  0.00  1.00  0.00  0.00  0.00  0.08  0.00
  WS02006232WS02006231    1.00   0.00  0.00  0.00  1.00  0.00  0.00  0.00  0.00  0.00
  WS02006231WS02006230    1.00   0.00  0.00  0.00  0.55  0.00  0.45  0.00  0.00  0.00
  WS02006230WS02006229    1.00   0.00  0.00  0.00  1.00  0.00  0.00  0.00  0.00  0.00
  WS02006228WS02006109    1.00   0.00  0.00  0.00  1.00  0.00  0.00  0.00  0.00  0.00
  WS02006116WS02004401    1.00   0.01  0.00  0.00  0.99  0.00  0.00  0.00  0.00  0.00
  WS02006115WS02006116    1.00   0.01  0.00  0.00  0.99  0.00  0.00  0.00  0.00  0.00
  WS02006113WS02006111    1.00   0.01  0.00  0.00  0.00  0.99  0.00  0.00  0.21  0.00
  WS02006112WS02006115    1.00   0.01  0.00  0.00  0.99  0.00  0.00  0.00  0.00  0.00
  WS02006111WS02006112    1.00   0.01  0.00  0.00  0.99  0.00  0.00  0.00  0.94  0.00
  WS02006110WS02006113    1.00   0.00  0.00  0.00  0.99  0.00  0.00  0.00  0.00  0.00
  WS02006109WS02006110    1.00   0.00  0.00  0.00  0.99  0.00  0.00  0.00  0.00  0.00
  WS02004411WS02004412    1.00   0.02  0.00  0.00  0.98  0.00  0.00  0.00  0.00  0.00
  WS02004401WS02004402    1.00   0.01  0.00  0.00  0.99  0.00  0.00  0.00  0.00  0.00
  WS02004413WS02003067    1.00   0.02  0.01  0.00  0.00  0.00  0.97  0.00  0.00  0.00
  WS02004412WS02004413    1.00   0.02  0.00  0.00  0.98  0.00  0.00  0.00  0.01  0.00
  WS02004410WS02004411    1.00   0.02  0.00  0.00  0.98  0.00  0.00  0.00  0.00  0.00
  WS02004409WS02004410    1.00   0.02  0.00  0.00  0.98  0.00  0.00  0.00  0.02  0.00
  WS02004407WS02004409    1.00   0.02  0.00  0.00  0.98  0.00  0.00  0.00  0.95  0.00
  WS02004406WS02004407    1.00   0.00  0.02  0.00  0.98  0.00  0.00  0.00  0.00  0.00
  WS02004405WS02004406    1.00   0.00  0.00  0.00  1.00  0.00  0.00  0.00  0.00  0.00
  WS02004404WS02004405    1.00   0.00  0.00  0.00  1.00  0.00  0.00  0.00  0.00  0.00
  WS02004403WS02004404    1.00   0.00  0.01  0.00  0.99  0.00  0.00  0.00  0.00  0.00
  WS02004402WS02004403    1.00   0.01  0.00  0.00  0.99  0.00  0.00  0.00  0.00  0.00
  WS02004139WS02001211    1.00   0.00  0.00  0.00  1.00  0.00  0.00  0.00  0.00  0.00
  WS02004138WS02004139    1.00   0.00  0.00  0.00  1.00  0.00  0.00  0.00  1.00  0.00
  WS02003067WS02003066    1.00   0.03  0.00  0.00  0.97  0.00  0.00  0.00  0.00  0.00
  WS02001213WS02003059    1.00   0.00  0.00  0.00  1.00  0.00  0.00  0.00  0.00  0.00
  WS02001212WS02001213    1.00   0.00  0.00  0.00  0.90  0.00  0.10  0.00  0.00  0.00
  WS02001211WS02001212    1.00   0.00  0.00  0.00  1.00  0.00  0.00  0.00  0.00  0.00
  WS02003072WS02003073    1.00   0.00  0.00  0.00  0.00  0.00  0.00  1.00  0.00  0.00
  WS02003069WS02003072    1.00   0.00  0.00  0.00  1.00  0.00  0.00  0.00  0.12  0.00
  WS02003060WS02003069    1.00   0.00  0.00  0.00  0.99  0.01  0.00  0.00  0.07  0.00
  WS02003059WS02003060    1.00   0.00  0.00  0.00  1.00  0.00  0.00  0.00  0.01  0.00
  HS02004901HS02004770    1.00   0.04  0.00  0.00  0.96  0.00  0.00  0.00  0.00  0.00
  HS02004876HS02004881    1.00   0.01  0.00  0.00  0.93  0.06  0.00  0.00  0.00  0.00
  HS02004870HS02004876    1.00   0.00  0.00  0.00  0.99  0.00  0.00  0.00  0.95  0.00
  HS02004842HS02004848    1.00   0.00  0.04  0.00  0.96  0.00  0.00  0.00  0.55  0.00
  HS02004837HS02004842    1.00   0.00  0.00  0.00  1.00  0.00  0.00  0.00  0.11  0.00
  HS02004830HS02004837    1.00   0.00  0.00  0.00  1.00  0.00  0.00  0.00  0.99  0.00
  HS02004824HS02004830    1.00   0.00  0.00  0.00  1.00  0.00  0.00  0.00  0.00  0.00
  HS02004817HS02004824    1.00   0.00  0.00  0.00  1.00  0.00  0.00  0.00  1.00  0.00
  HS02004770HS02004777    1.00   0.00  0.04  0.00  0.96  0.00  0.00  0.00  0.02  0.00
  HS02004799HS02004480    1.00   0.00  0.01  0.00  0.95  0.00  0.03  0.00  0.00  0.00
  HS02004792HS02004799    1.00   0.00  0.00  0.00  0.99  0.00  0.00  0.00  0.98  0.00
  HS02004788HS02004792    1.00   0.00  0.00  0.00  1.00  0.00  0.00  0.00  0.98  0.00
  HS02004785HS02004788    1.00   0.00  0.00  0.00  1.00  0.00  0.00  0.00  0.00  0.00
  HS02004777HS02004785    1.00   0.00  0.00  0.00  1.00  0.00  0.00  0.00  0.12  0.00
  HS02004480HS02004478    1.00   0.04  0.00  0.00  0.69  0.00  0.00  0.27  0.00  0.00
  HS02004479HS02004480    1.00   0.02  0.00  0.00  0.98  0.00  0.00  0.00  0.11  0.00
  HS02004862HS02004870    1.00   0.00  0.00  0.00  1.00  0.00  0.00  0.00  0.03  0.00
  HS02004848HS02004852    1.00   0.04  0.00  0.00  0.96  0.00  0.00  0.00  0.62  0.00
  HS02004856HS02004862    1.00   0.00  0.05  0.00  0.95  0.00  0.00  0.00  0.83  0.00
  HS02004852HS02004856    1.00   0.04  0.00  0.00  0.96  0.00  0.00  0.00  0.85  0.00
  HS02004802HS02004478    1.00   0.04  0.00  0.00  0.96  0.00  0.00  0.00  0.02  0.00
  HS02004478WS02006287    1.00   0.05  0.00  0.00  0.76  0.20  0.00  0.00  0.64  0.00
  HS02004817HS02004807    1.00   0.00  0.04  0.00  0.96  0.00  0.00  0.00  0.01  0.00
  HS02004807HS02004802    1.00   0.04  0.00  0.00  0.96  0.00  0.00  0.00  0.00  0.00
  YS02001759YS02001757    1.00   0.00  0.00  0.00  1.00  0.00  0.00  0.00  0.16  0.00
  YS02001762YS02001759    1.00   0.00  0.00  0.00  1.00  0.00  0.00  0.00  0.03  0.00
  YS02001765YS02001762    1.00   0.00  0.00  0.00  1.00  0.00  0.00  0.00  0.13  0.00
  YS02001770YS02001767    1.00   0.00  0.00  0.00  1.00  0.00  0.00  0.00  0.00  0.00
  YS02001774YS02001770    1.00   0.00  0.04  0.00  0.96  0.00  0.00  0.00  0.03  0.00
  YS02001779YS02001774    1.00   0.00  0.00  0.00  1.00  0.00  0.00  0.00  0.18  0.00
  YS02001649YS02001757    1.00   0.00  0.00  0.00  1.00  0.00  0.00  0.00  0.16  0.00
  YS02001767YS02001765    1.00   0.00  0.00  0.00  1.00  0.00  0.00  0.00  0.00  0.00
  YS02006561YS02001783    1.00   0.05  0.00  0.00  0.36  0.59  0.00  0.00  0.48  0.00
  YS02001783YS02001784    1.00   0.00  0.05  0.00  0.95  0.00  0.00  0.00  0.01  0.00
  YS02001784YS02001785    1.00   0.00  0.00  0.00  1.00  0.00  0.00  0.00  0.17  0.00
  YS02001788YS02001790    1.00   0.00  0.00  0.00  0.43  0.57  0.00  0.00  0.37  0.00
  YS02001790YS02001791    1.00   0.00  0.00  0.00  0.40  0.60  0.00  0.00  0.44  0.00
  YS02001791YS02001793    1.00   0.00  0.00  0.00  0.43  0.57  0.00  0.00  0.03  0.00
  YS02001910YS02001907    1.00   0.00  0.00  0.00  0.99  0.00  0.00  0.01  0.12  0.00
  YS02001786YS02001788    1.00   0.00  0.00  0.00  0.41  0.59  0.00  0.00  0.00  0.00
  YS02001915YS02001910    1.00   0.00  0.00  0.00  0.99  0.01  0.00  0.00  0.15  0.00
  YS02001918YS02001915    1.00   0.00  0.00  0.00  0.99  0.01  0.00  0.00  0.55  0.00
  YS02001923YS02001920    1.00   0.00  0.00  0.00  1.00  0.00  0.00  0.00  0.84  0.00
  YS02001926YS02001923    1.00   0.00  0.03  0.00  0.13  0.00  0.85  0.00  0.00  0.00
  YS02001929YS02001926    1.00   0.00  0.04  0.00  0.96  0.00  0.00  0.00  0.76  0.00
  YS02001920YS02001918    1.00   0.00  0.00  0.00  1.00  0.00  0.00  0.00  0.00  0.00
  YS02001629YS02163301    1.00   0.04  0.00  0.00  0.95  0.00  0.00  0.00  0.00  0.00
  YS02001619YS02001622    1.00   0.04  0.00  0.00  0.96  0.00  0.00  0.00  0.00  0.00
  YS02001622YS02001625    1.00   0.04  0.00  0.00  0.96  0.00  0.00  0.00  0.04  0.00
  YS02001625YS02001629    1.00   0.04  0.01  0.00  0.93  0.00  0.02  0.00  0.00  0.00
  YS02163301YS02001633    1.00   0.00  0.04  0.00  0.96  0.00  0.00  0.00  0.00  0.00
  YS02163601YS02164001    1.00   0.00  0.03  0.00  0.97  0.00  0.00  0.00  0.00  0.00
  YS02164001YS02001641    1.00   0.00  0.02  0.00  0.97  0.00  0.00  0.00  0.06  0.00
  YS02001641YS02001644    1.00   0.00  0.00  0.00  1.00  0.00  0.00  0.00  0.00  0.00
  YS02001647YS02001649    1.00   0.00  0.05  0.00  0.95  0.00  0.00  0.00  0.01  0.00
  YS02006553YS02006556    1.00   0.01  0.00  0.00  0.99  0.00  0.00  0.00  0.03  0.00
  YS02006556YS02006558    1.00   0.00  0.00  0.00  1.00  0.00  0.00  0.00  0.00  0.00
  YSB6556YSB1171          1.00   0.02  0.02  0.00  0.96  0.00  0.00  0.00  0.00  0.00
  YS02001907YS02006553    1.00   0.00  0.01  0.00  0.99  0.00  0.00  0.00  0.00  0.00
  YS02006558YS02006561    1.00   0.05  0.00  0.00  0.13  0.81  0.00  0.00  0.48  0.00
  YS02001633YS02163601    1.00   0.00  0.00  0.00  1.00  0.00  0.00  0.00  0.15  0.00
  YS02001644YS02001647    1.00   0.00  0.05  0.00  0.95  0.00  0.00  0.00  0.00  0.00
  YS02001745YS02001748    1.00   0.00  0.00  0.00  0.91  0.01  0.00  0.09  0.04  0.00
  YS02001748YS02001751    1.00   0.00  0.00  0.00  0.97  0.03  0.00  0.00  0.15  0.00
  YS02001751YS02001754    1.00   0.00  0.00  0.00  0.94  0.00  0.00  0.06  0.02  0.00
  YS02001754YS02001757    1.00   0.00  0.00  0.00  1.00  0.00  0.00  0.00  0.18  0.00
  YS02001882YS02001884    1.00   0.04  0.00  0.00  0.95  0.00  0.00  0.00  0.00  0.00
  YS02001884YS02001887    1.00   0.02  0.01  0.00  0.96  0.00  0.00  0.00  0.00  0.00
  YS02001890YS02001895    1.00   0.00  0.04  0.00  0.95  0.00  0.00  0.00  0.00  0.00
  YS02001895YS02001898    1.00   0.05  0.00  0.00  0.94  0.00  0.01  0.00  0.00  0.00
  YS02001898YS02001901    1.00   0.05  0.00  0.00  0.95  0.00  0.00  0.00  0.01  0.00
  YS02001901YS02001904    1.00   0.05  0.00  0.00  0.95  0.00  0.00  0.00  0.00  0.00
  YS02001904YS02001907    1.00   0.00  0.05  0.00  0.95  0.00  0.00  0.00  0.00  0.00
  YS02001887YS02001890    1.00   0.00  0.00  0.00  0.99  0.00  0.01  0.00  0.00  0.00
  YS02001652YS02001649    1.00   0.00  0.00  0.00  1.00  0.00  0.00  0.00  0.16  0.00
  YS02001655YS02001652    1.00   0.00  0.00  0.00  0.94  0.00  0.00  0.06  0.02  0.00
  YS02001658YS02001655    1.00   0.00  0.04  0.00  0.93  0.03  0.00  0.00  0.08  0.00
  YS02001661YS02001658    1.00   0.04  0.00  0.00  0.91  0.05  0.00  0.00  0.09  0.00
  YS02001664YS02001661    1.00   0.04  0.00  0.00  0.91  0.05  0.00  0.00  0.19  0.00
  YSB1154YSB6556          1.00   0.04  0.00  0.00  0.96  0.00  0.00  0.00  0.01  0.00
  YSB1174YSB1171          1.00   0.02  0.01  0.00  0.97  0.00  0.00  0.00  0.00  0.00
  YSB1171HS02004479       1.00   0.02  0.00  0.00  0.98  0.00  0.00  0.00  0.10  0.00
  HS02004881HS02006253    1.00   0.02  0.00  0.00  0.50  0.04  0.00  0.44  0.33  0.00
  YS02001793JiankangQianchi    1.00   0.00  0.00  0.00  0.70  0.30  0.00  0.00  0.37  0.00
  YS02001757CaochengTiaoxuchi    1.00   0.00  0.07  0.00  0.93  0.00  0.00  0.00  0.00  0.00
  WSF200WS02003060        1.00   0.00  0.01  0.00  0.97  0.02  0.00  0.00  0.55  0.00
  1                       1.00   0.00  0.00  0.00  0.00  1.00  0.00  0.00  0.49  0.00
  
  
  *************************
  Conduit Surcharge Summary
  *************************
  
  ----------------------------------------------------------------------------
                                                           Hours        Hours 
                         --------- Hours Full --------   Above Full   Capacity
  Conduit                Both Ends  Upstream  Dnstream   Normal Flow   Limited
  ----------------------------------------------------------------------------
  WS02006229WS02006228        2.23      2.34      2.23      3.78         2.23
  WS02006256WS02006235        5.59      5.59      6.88      4.31         0.01
  WS02006253WS02006251        0.11      0.11      0.13      0.01         0.03
  WS02006252WS02006251        0.09      0.09      0.25      0.21         0.01
  WS02006251WS02006249        0.13      0.13      0.15      0.05         0.01
  WS02006249WS02006248        0.13      0.13      0.15      1.50         0.01
  WS02006248WS02006247        0.15      0.15      0.19      0.01         0.01
  WS02006247WS02006245        0.19      0.20      0.19      2.19         0.19
  WS02006245WS02006243        0.21      0.21      0.28      0.01         0.01
  WS02006243WS02006242        0.37      0.37      0.89      0.01         0.01
  WS02006242WS02006240        0.78      0.78      0.96      0.15         0.01
  WS02006240WS02006239        0.88      0.88      0.98      0.01         0.01
  WS02006239WS02006238        1.15      1.15      1.49      0.01         0.02
  WS02006238WS02006235        1.47      1.47      1.72      0.01         0.01
  WS02006235WS02006234        1.04      1.04      1.38      5.49         0.01
  WS02006234WS02006232        1.20      1.20      2.00      0.01         0.03
  WS02006232WS02006231        0.70      0.70      2.00      0.10         0.01
  WS02006231WS02006230        0.35      0.35      0.79      5.66         0.01
  WS02006230WS02006229        3.04      3.51      3.04      6.00         3.04
  WS02006228WS02006109        2.28      2.74      2.28      4.91         2.28
  WS02006116WS02004401        0.09      0.09      0.10      0.01         0.01
  WS02006112WS02006115        0.01      0.01      1.25      0.01         0.01
[...]
  YS02001762YS02001759        5.87      5.87      5.89      0.01         0.01
  YS02001765YS02001762        5.84      5.84      5.87      0.01         0.01
  YS02001770YS02001767        5.81      5.81      5.81      0.33         0.71
  YS02001774YS02001770        5.80      5.80      5.86      0.01         0.01
  YS02001779YS02001774        5.67      5.67      5.86      0.01         0.01
  YS02001649YS02001757        5.87      5.87      5.98      0.01         0.01
  YS02001767YS02001765        5.81      5.81      5.84      0.01         0.01
  YS02006561YS02001783        0.77      0.77      1.06      0.01         0.01
  YS02001783YS02001784        1.04      1.06      1.04      1.40         1.02
  YS02001784YS02001785        0.98      1.04      0.98      2.39         0.98
  YS02001788YS02001790        0.93      0.93      2.09      0.01         0.01
  YS02001790YS02001791        2.09      2.09      2.21      0.87         0.85
  YS02001791YS02001793        2.21      2.21      2.64      0.01         0.01
  YS02001910YS02001907        1.07      1.07      1.80      0.01         0.01
  YS02001786YS02001788        0.93      0.98      0.93      1.99         0.93
  YS02001915YS02001910        0.89      0.89      1.07      0.01         0.01
  YS02001918YS02001915        0.72      0.72      0.89      0.01         0.01
  YS02001923YS02001920        0.55      0.55      0.74      0.01         0.01
  YS02001920YS02001918        0.72      0.72      0.74      0.01         0.01
  YS02001629YS02163301        5.80      5.80      5.81      0.01         0.01
  YS02001619YS02001622        5.47      5.47      5.50      0.01         0.01
  YS02001622YS02001625        5.50      5.50      5.76      0.01         0.01
  YS02001625YS02001629        5.47      5.47      5.76      0.01         0.01
  YS02163301YS02001633        5.81      5.81      5.84      0.01         0.01
  YS02163601YS02164001        5.84      5.84      5.87      0.01         0.01
  YS02164001YS02001641        5.84      5.84      5.85      0.01         0.03
  YS02001641YS02001644        5.85      5.85      5.85      1.52         1.67
  YS02001647YS02001649        5.75      5.75      5.87      0.01         0.01
  YS02006553YS02006556        1.30      1.30      1.87      0.01         0.01
  YS02006556YS02006558        1.51      1.51      1.93      0.01         0.01
  YS02001907YS02006553        2.41      2.41      2.62      0.01         0.01
  YS02006558YS02006561        0.91      1.26      0.91      2.23         0.91
  YS02001633YS02163601        5.83      5.83      5.87      0.01         0.01
  YS02001644YS02001647        5.75      5.75      5.85      0.01         0.01
  YS02001745YS02001748        0.01      0.01      5.30      0.01         0.01
  YS02001748YS02001751        5.36      5.36      5.48      0.01         0.01
  YS02001751YS02001754        5.48      5.48      5.69      0.01         0.01
  YS02001754YS02001757        5.74      5.74      5.98      0.01         0.01
  YS02001882YS02001884        0.91      0.91      0.93      0.01         0.01
  YS02001884YS02001887        0.97      0.97      1.00      0.01         0.01
  YS02001890YS02001895        0.88      0.88      1.08      0.01         0.01
  YS02001895YS02001898        0.87      0.87      0.88      0.01         0.01
  YS02001898YS02001901        0.89      0.89      0.97      0.01         0.01
  YS02001901YS02001904        0.94      0.94      0.97      0.01         0.01
  YS02001904YS02001907        0.94      0.94      1.88      0.01         0.01
  YS02001887YS02001890        1.02      1.02      1.05      0.01         0.01
  YS02001652YS02001649        5.76      5.76      5.87      0.01         0.01
  YS02001655YS02001652        5.50      5.50      5.73      0.01         0.01
  YS02001658YS02001655        5.33      5.33      5.50      0.01         0.01
  YS02001661YS02001658        0.17      0.17      5.33      0.01         0.01
  YS02001664YS02001661        0.01      0.01      1.30      0.01         0.01
  YS02001793JiankangQianchi        2.53      2.53      4.24      0.01         0.01
  YS02001757CaochengTiaoxuchi        5.21      5.21      5.98      0.01         0.01
  
  
  ***************
  Pumping Summary
  ***************
  
  ---------------------------------------------------------------------------------------------------------
                                                  Min       Avg       Max     Total     Power    % Time Off
                        Percent   Number of      Flow      Flow      Flow    Volume     Usage    Pump Curve
  Pump                 Utilized   Start-Ups       LPS       LPS       LPS  10^6 ltr     Kw-hr    Low   High
  ---------------------------------------------------------------------------------------------------------
  CC-Pump-1               42.53           6      0.00    142.79    200.00     1.560      0.98    0.0    0.0
  CC-Pump-2                8.50           2      0.00    106.92    199.95     0.240      0.22    0.0    0.0
  JK-Pump-1               59.57           5      0.00    227.25    300.00     3.627     55.49    0.0    0.0
  JK-Pump-2               51.06           4      0.00    427.08    683.00     5.960     82.58    0.0   95.5
  XR-Pump-1              100.00           1      0.00     95.00     95.00     2.679     27.15    0.0    0.0
  XR-Pump-2               95.75           3      0.00     92.40     95.00     2.394     21.17    0.0    0.0
  XR-Pump-3               95.75           3      0.00     92.40     95.00     2.394     21.17    0.0    0.0
  XR-Pump-4               95.75           3      0.00     92.40     95.00     2.394     21.17    0.0    0.0
  
  
  ***************************
  Link Pollutant Load Summary
  ***************************
  
  ------------------------------------------------------------------------------------------
                                 COD            SS            TN            TP         NH4-N
  Link                            kg            kg            kg            kg            kg
  ------------------------------------------------------------------------------------------
  WS02003066WSF200           679.958      1253.608        18.771         1.689        10.004
  WS02006287WS02006284       268.044       498.177         9.347         0.943         5.214
  WS02006284WS02006280       268.531       498.961         9.394         0.949         5.243
  WS02006280WS02006229       268.502       498.905         9.392         0.949         5.242
  WS02006229WS02006228       671.894      1239.730        18.114         1.606         9.597
  WS02006256WS02006235       211.063       387.116         4.607         0.355         2.322
  WS02006253WS02006251        50.023        96.611         1.098         0.081         0.542
  WS02006252WS02006251       151.908       274.392         3.236         0.238         1.600
  WS02006251WS02006249       196.804       361.837         4.236         0.313         2.096
  WS02006249WS02006248       196.361       360.979         4.226         0.312         2.092
  WS02006248WS02006247       196.573       361.399         4.229         0.312         2.093
  WS02006247WS02006245       196.388       361.065         4.224         0.312         2.090
  WS02006245WS02006243       196.089       360.606         4.213         0.311         2.084
  WS02006243WS02006242       195.943       360.316         4.212         0.311         2.084
  WS02006242WS02006240       196.379       361.012         4.227         0.312         2.092
  WS02006240WS02006239       197.728       363.375         4.264         0.315         2.111
  WS02006239WS02006238       199.790       366.802         4.332         0.322         2.149
  WS02006238WS02006235       200.905       368.550         4.368         0.325         2.169
  WS02006235WS02006234       404.098       742.023         8.753         0.661         4.373
  WS02006234WS02006232       404.268       742.307         8.761         0.662         4.377
  WS02006232WS02006231       404.096       741.995         8.756         0.661         4.375
  WS02006231WS02006230       403.860       741.580         8.750         0.661         4.372
  WS02006230WS02006229       403.771       741.465         8.744         0.660         4.368
  WS02006228WS02006109       671.713      1239.418        18.101         1.605         9.590
  WS02006116WS02004401       686.318      1264.929        18.944         1.704        10.095
  WS02006115WS02006116       686.981      1266.097        18.967         1.707        10.109
  WS02006113WS02006111       678.909      1250.753        18.853         1.700        10.062
  WS02006112WS02006115       687.786      1267.497        19.002         1.710        10.129
  WS02006111WS02006112       678.752      1250.488        18.844         1.699        10.056
  WS02006110WS02006113       679.308      1251.454        18.872         1.702        10.073
  WS02006109WS02006110       679.968      1252.584        18.907         1.706        10.094
  WS02004411WS02004412       681.865      1256.901        18.858         1.699        10.055
  WS02004401WS02004402       685.527      1263.547        18.911         1.701        10.077
  WS02004413WS02003067       680.232      1254.089        18.781         1.690        10.010
  WS02004412WS02004413       681.232      1255.806        18.830         1.696        10.039
  WS02004410WS02004411       682.390      1257.818        18.879         1.701        10.067
  WS02004409WS02004410       682.983      1258.851        18.903         1.704        10.080
  WS02004407WS02004409       683.419      1259.623        18.917         1.705        10.088
  WS02004406WS02004407       683.486      1259.757        18.915         1.704        10.087
  WS02004405WS02004406       684.468      1261.457        18.960         1.709        10.113
  WS02004404WS02004405       684.863      1262.206        18.952         1.708        10.106
  WS02004403WS02004404       684.173      1261.171        18.860         1.696        10.048
  WS02004402WS02004403       684.847      1262.349        18.887         1.699        10.063
  WS02004139WS02001211      1393.058      2295.243       115.812        14.182        71.519
  WS02004138WS02004139      1399.457      2305.817       116.326        14.245        71.836
  WS02003067WS02003066       680.093      1253.843        18.776         1.690        10.007
  WS02001213WS02003059      1425.969      2347.172       119.187        14.607        73.638
  WS02001212WS02001213      1435.098      2362.169       119.949        14.701        74.109
  WS02001211WS02001212      1437.264      2365.693       120.139        14.724        74.227
  WS02003072WS02003073      2206.901      3761.639       147.878        17.540        89.853
  WS02003069WS02003072      2211.995      3769.951       148.310        17.594        90.120
  WS02003060WS02003069      2214.245      3773.735       148.467        17.612        90.215
  WS02003059WS02003060      1422.838      2341.944       118.952        14.579        73.494
  HS02004901HS02004770        10.269        19.476         0.195         0.015         0.091
  HS02004876HS02004881        37.317        72.577         0.843         0.062         0.416
  HS02004870HS02004876        28.159        54.626         0.678         0.051         0.338
  HS02004842HS02004848         5.467        10.276         0.115         0.008         0.053
  HS02004837HS02004842        10.072        17.582         0.584         0.067         0.347
  HS02004830HS02004837        65.638       112.703         4.557         0.546         2.785
  HS02004824HS02004830        66.389       113.905         4.628         0.555         2.830
  HS02004817HS02004824        88.205       156.973         5.083         0.584         3.051
  HS02004770HS02004777        39.294        75.462         0.819         0.055         0.377
  HS02004799HS02004480       131.402       245.355         3.680         0.335         1.932
  HS02004792HS02004799       119.080       220.650         3.497         0.327         1.853
  HS02004788HS02004792        68.392       126.850         2.388         0.235         1.309
  HS02004785HS02004788        40.731        77.755         0.969         0.074         0.471
  HS02004777HS02004785        40.057        76.662         0.908         0.067         0.433
  HS02004480HS02004478       165.944       312.576         4.243         0.375         2.196
  HS02004479HS02004480        38.145        72.973         0.884         0.079         0.462
  HS02004862HS02004870        21.015        40.116         0.536         0.043         0.270
  HS02004848HS02004852         8.057        15.279         0.167         0.011         0.077
  HS02004856HS02004862        14.071        27.339         0.284         0.019         0.133
  HS02004852HS02004856         8.064        15.290         0.167         0.011         0.077
  HS02004802HS02004478       102.885       186.885         5.163         0.576         3.055
  HS02004478WS02006287       268.245       498.516         9.363         0.945         5.225
  HS02004817HS02004807        86.888       154.860         4.957         0.568         2.972
  HS02004807HS02004802       103.112       187.239         5.194         0.580         3.075
  YS02001759YS02001757       294.688       533.458         5.958         0.412         2.915
  YS02001762YS02001759       177.362       324.075         3.722         0.261         1.838
  YS02001765YS02001762       178.055       325.975         3.755         0.264         1.856
  YS02001770YS02001767       179.575       330.741         3.606         0.240         1.751
  YS02001774YS02001770       219.475       419.819         4.246         0.282         2.053
  YS02001779YS02001774       218.824       418.480         4.341         0.297         2.119
  YS02001649YS02001757       357.457       642.289         7.255         0.498         3.499
  YS02001767YS02001765       179.388       329.053         3.794         0.267         1.877
  YS02006561YS02001783       936.126      1716.773        19.829         1.488         9.895
  YS02001783YS02001784       936.030      1716.627        19.825         1.487         9.893
  YS02001784YS02001785       943.354      1728.358        20.538         1.577        10.339
  YS02001788YS02001790       943.916      1729.249        20.611         1.586        10.386
  YS02001790YS02001791       945.010      1731.014        20.721         1.600        10.455
  YS02001791YS02001793       944.902      1730.820        20.717         1.600        10.452
  YS02001910YS02001907       330.177       599.368         8.228         0.641         4.250
  YS02001786YS02001788       943.537      1728.655        20.566         1.580        10.357
  YS02001915YS02001910       330.260       599.499         8.184         0.635         4.221
  YS02001918YS02001915       159.832       277.821         4.653         0.433         2.533
  YS02001923YS02001920       137.488       241.205         2.668         0.187         1.298
  YS02001926YS02001923       136.555       239.679         2.591         0.178         1.251
  YS02001929YS02001926       136.166       239.021         2.555         0.174         1.228
  YS02001920YS02001918       157.665       273.591         4.581         0.426         2.493
  YS02001629YS02163301       103.539       183.466         2.171         0.140         1.012
  YS02001619YS02001622       146.393       262.929         3.031         0.197         1.414
  YS02001622YS02001625       145.239       261.105         3.003         0.195         1.401
  YS02001625YS02001629       104.630       185.270         2.196         0.142         1.023
  YS02163301YS02001633       103.269       183.012         2.164         0.140         1.010
  YS02163601YS02164001       362.071       646.261         7.116         0.502         3.404
  YS02164001YS02001641       361.587       645.449         7.097         0.501         3.393
  YS02001641YS02001644       361.830       645.784         7.096         0.500         3.392
  YS02001647YS02001649       419.125       759.664         8.422         0.580         4.039
  YS02006553YS02006556       657.628      1200.398        14.231         1.094         7.177
  YS02006556YS02006558       657.585      1200.307        14.199         1.090         7.156
  YSB6556YSB1171              21.952        42.196         0.451         0.038         0.229
  YS02001907YS02006553       657.750      1200.647        14.245         1.096         7.186
  YS02006558YS02006561       936.099      1716.719        19.828         1.488         9.895
  YS02001633YS02163601       362.761       647.330         7.096         0.498         3.387
  YS02001644YS02001647       425.160       770.319         8.510         0.587         4.078
  YS02001745YS02001748       210.491       387.107         4.779         0.336         2.393
  YS02001748YS02001751       208.683       383.617         4.841         0.348         2.441
  YS02001751YS02001754       207.686       381.979         4.822         0.348         2.433
  YS02001754YS02001757       208.457       383.141         4.987         0.370         2.539
  YS02001882YS02001884         2.588         4.454         0.052         0.004         0.026
  YS02001884YS02001887         6.834        12.105         0.134         0.010         0.066
  YS02001890YS02001895       389.482       720.681         7.189         0.539         3.508
  YS02001895YS02001898       389.310       720.445         7.183         0.539         3.505
  YS02001898YS02001901       389.096       720.080         7.178         0.538         3.502
  YS02001901YS02001904       388.945       719.866         7.185         0.540         3.507
  YS02001904YS02001907       389.168       720.208         7.239         0.547         3.542
  YS02001887YS02001890       390.283       721.879         7.244         0.546         3.541
  YS02001652YS02001649       156.815       286.981         3.195         0.230         1.498
  YS02001655YS02001652       157.395       287.925         3.211         0.231         1.505
  YS02001658YS02001655       156.853       287.056         3.123         0.219         1.449
  YS02001661YS02001658       161.240       294.905         3.212         0.225         1.490
  YS02001664YS02001661       178.749       323.787         3.604         0.252         1.669
  YSB1154YSB6556              21.532        41.527         0.402         0.032         0.198
  YSB1174YSB1171              14.655        28.291         0.298         0.024         0.150
  YSB1171HS02004479           38.104        72.907         0.888         0.079         0.465
  HS02004881HS02006253        42.074        82.053         0.929         0.068         0.458
  YS02001793JiankangQianchi       945.447      1731.659        20.751         1.603        10.472
  YS02001757CaochengTiaoxuchi       493.781       885.990        10.578         0.769         5.226
  WSF200WS02003060           680.073      1253.817        18.776         1.690        10.007
  1                         2214.559      3773.599       148.692        17.644        90.365
  CC-Pump-1                  131.114       236.783         2.788         0.205         1.378
  CC-Pump-2                   20.585        37.254         0.437         0.032         0.216
  JK-Pump-1                  241.271       445.082         5.149         0.391         2.580
  JK-Pump-2                  492.024       913.565        10.402         0.790         5.205
  XR-Pump-1                  394.226       647.490        33.307         4.088        20.597
  XR-Pump-2                  336.314       554.802        27.778         3.398        17.144
  XR-Pump-3                  336.314       554.802        27.778         3.398        17.144
  XR-Pump-4                  336.314       554.802        27.778         3.398        17.144
  

  Analysis begun on:  Thu Jul 15 15:14:18 2021
  Analysis ended on:  Thu Jul 15 15:14:21 2021
  Total elapsed time: 00:00:03