
  EPA STORM WATER MANAGEMENT MODEL - VERSION 5.1 (Build 5.3.0.dev0)
  --------------------------------------------------------------

  WARNING 04: minimum elevation drop used for Conduit WS02004404WS02004405
  WARNING 03: negative offset ignored for Link YS02001904YS02001907
  
  *********************************************************
  NOTE: The summary statistics displayed in this report are
  based on results found at every computational time step,  
  not just on results from each reporting time step.
  *********************************************************
  
  ****************
  Analysis Options
  ****************
  Flow Units ............... LPS
  Process Models:
    Rainfall/Runoff ........ YES
    RDII ................... NO
    Snowmelt ............... NO
    Groundwater ............ NO
    Flow Routing ........... YES
    Ponding Allowed ........ NO
    Water Quality .......... YES
  Infiltration Method ...... HORTON
  Flow Routing Method ...... DYNWAVE
  Surcharge Method ......... EXTRAN
  Starting Date ............ 08/28/2015 08:00:00
  Ending Date .............. 08/28/2015 15:50:00
  Antecedent Dry Days ...... 8.0
  Report Time Step ......... 00:01:00
  Wet Time Step ............ 00:01:00
  Dry Time Step ............ 00:01:00
  Routing Time Step ........ 5.00 sec
  Variable Time Step ....... YES
  Maximum Trials ........... 8
  Number of Threads ........ 4
  Head Tolerance ........... 0.001500 m
  
  
  **************************        Volume         Depth
  Runoff Quantity Continuity     hectare-m            mm
  **************************     ---------       -------
  Total Precipitation ......         5.556        12.164
  Evaporation Loss .........         0.000         0.000
  Infiltration Loss ........         1.002         2.194
  Surface Runoff ...........         3.688         8.075
  Final Storage ............         0.866         1.897
  Continuity Error (%) .....        -0.019
  
  
  **************************           COD            SS            TN            TP         NH4-N
  Runoff Quality Continuity             kg            kg            kg            kg            kg
  **************************    ----------    ----------    ----------    ----------    ----------
  Initial Buildup ..........     41378.656     70582.865      1804.177       168.684      1032.807
  Surface Buildup ..........        19.275        34.271         2.335         0.213         1.362
  Wet Deposition ...........         0.000         0.000         0.000         0.000         0.000
  Sweeping Removal .........         0.000         0.000         0.000         0.000         0.000
  Infiltration Loss ........        84.023       157.502         1.599         0.111         0.761
  BMP Removal ..............         0.000         0.000         0.000         0.000         0.000
  Surface Runoff ...........      3122.074      5752.154        60.620         4.098        28.771
  Remaining Buildup ........     38190.779     64705.500      1744.271       164.686      1004.628
  Continuity Error (%) .....         0.003         0.003         0.001         0.001         0.001
  
  
  **************************        Volume        Volume
  Flow Routing Continuity        hectare-m      10^6 ltr
  **************************     ---------     ---------
  Dry Weather Inflow .......         0.616         6.165
  Wet Weather Inflow .......         3.687        36.871
  Groundwater Inflow .......         0.000         0.000
  RDII Inflow ..............         0.000         0.000
  External Inflow ..........         0.102         1.024
  External Outflow .........         1.811        18.109
  Flooding Loss ............         2.157        21.570
  Evaporation Loss .........         0.000         0.000
  Exfiltration Loss ........         0.000         0.000
  Initial Stored Volume ....         0.076         0.761
  Final Stored Volume ......         0.629         6.292
  Continuity Error (%) .....        -2.569
  
  
  **************************           COD            SS            TN            TP         NH4-N
  Quality Routing Continuity            kg            kg            kg            kg            kg
  **************************    ----------    ----------    ----------    ----------    ----------
  Dry Weather Inflow .......      1541.201      2465.922       147.955        18.494        92.472
  Wet Weather Inflow .......      3121.322      5750.879        60.604         4.097        28.763
  Groundwater Inflow .......         0.000         0.000         0.000         0.000         0.000
  RDII Inflow ..............         0.000         0.000         0.000         0.000         0.000
  External Inflow ..........       183.418       293.469        17.608         2.201        11.005
  External Outflow .........      2198.044      3744.811       148.508        17.643        90.304
  Flooding Loss ............      1949.509      3561.127        50.314         4.353        26.410
  Exfiltration Loss ........         0.000         0.000         0.000         0.000         0.000
  Mass Reacted .............         0.000         0.000         0.000         0.000         0.000
  Initial Stored Mass ......         0.000         0.000         0.000         0.000         0.000
  Final Stored Mass ........       558.404       964.543        23.866         2.521        13.754
  Continuity Error (%) .....         2.889         2.818         1.538         1.114         1.341
  
  
  *************************
  Highest Continuity Errors
  *************************
  Node HS02004842 (14.53%)
  Node JK-storage (-11.46%)
  Node YS02001884 (10.73%)
  Node YSB1171 (2.74%)
  Node HS02004817 (2.73%)
  
  
  ***************************
  Time-Step Critical Elements
  ***************************
  Link WS02006252WS02006251 (59.64%)
  Link WS02006280WS02006229 (10.48%)
  Link WS02006238WS02006235 (8.51%)
  Link YS02001793JiankangQianchi (4.97%)
  Link YS02006556YS02006558 (3.94%)
  
  
  ********************************
  Highest Flow Instability Indexes
  ********************************
  Link WS02006113WS02006111 (51)
  Link YS02163601YS02164001 (45)
  Link YS02163301YS02001633 (44)
  Link YS02001629YS02163301 (44)
  Link YS02001619YS02001622 (43)
  
  
  *************************
  Routing Time Step Summary
  *************************
  Minimum Time Step           :     0.50 sec
  Average Time Step           :     1.33 sec
  Maximum Time Step           :     5.00 sec
  Percent in Steady State     :    -0.00
  Average Iterations per Step :     4.61
  Percent Not Converging      :    21.96
  
  
  ***************************
  Subcatchment Runoff Summary
  ***************************
  
  ------------------------------------------------------------------------------------------------------------------------------
                            Total      Total      Total      Total     Imperv       Perv      Total       Total     Peak  Runoff
                           Precip      Runon       Evap      Infil     Runoff     Runoff     Runoff      Runoff   Runoff   Coeff
  Subcatchment                 mm         mm         mm         mm         mm         mm         mm    10^6 ltr      LPS
  ------------------------------------------------------------------------------------------------------------------------------
  sub0                      12.16       0.00       0.00       0.65      11.27       0.20      11.47        0.01     1.99   0.943
  sub1                      12.16       0.00       0.00       1.12      10.73       0.22      10.95        0.07    14.96   0.900
  sub2                      12.16       0.00       0.00       4.23       7.58       0.27       7.85        0.07    15.08   0.646
  sub3                      12.16       0.00       0.00       4.29       7.54       0.21       7.75        0.17    34.61   0.637
  sub4                      12.16       0.00       0.00       1.19      10.57       0.14      10.71        0.22    42.34   0.881
  sub5                      12.16       0.00       0.00       0.69      11.21       0.16      11.38        0.13    26.18   0.935
  sub7                      12.16       0.00       0.00       0.88      11.01       0.22      11.22        0.04     7.95   0.923
  sub8                      12.16       0.00       0.00       0.89      11.00       0.21      11.20        0.07    14.89   0.921
  sub9                      12.16       0.00       0.00       0.89      10.99       0.21      11.20        0.05    11.18   0.921
  sub10                     12.16       0.00       0.00       0.79      11.10       0.18      11.28        0.12    25.49   0.928
  sub11                     12.16       0.00       0.00       0.78      11.12       0.19      11.31        0.13    27.35   0.930
  sub12                     12.16       0.00       0.00       1.27      10.53       0.31      10.85        0.09    20.52   0.892
  sub14                     12.16       0.00       0.00       0.89      10.99       0.20      11.20        0.11    22.08   0.920
  sub15                     12.16       0.00       0.00       3.28       8.45       0.37       8.82        0.15    32.49   0.725
  sub16                     12.16       0.00       0.00       3.51       8.11       0.50       8.61        0.09    20.36   0.708
  sub17                     12.16       0.00       0.00       3.41       8.23       0.48       8.71        0.07    16.72   0.716
  sub22                     12.16       0.00       0.00       4.80       6.89       0.43       7.32        0.46   102.62   0.602
  sub23                     12.16       0.00       0.00       4.05       7.62       0.45       8.07        0.38    85.35   0.663
  sub60                     12.16       0.00       0.00       1.42       8.82       0.04       8.86        2.69   336.84   0.729
  sub61                     12.16       0.00       0.00       2.01       8.94       0.06       9.00        2.78   399.45   0.740
  sub62                     12.16       0.00       0.00       0.92       9.73       0.05       9.78        3.01   415.79   0.804
  sub63                     12.16       0.00       0.00       3.46       7.82       0.06       7.88        2.39   361.21   0.648
  sub64                     12.16       0.00       0.00       1.78       8.47       0.04       8.51        2.59   320.97   0.699
  sub65                     12.16       0.00       0.00       1.54       8.61       0.04       8.65        2.66   326.54   0.711
  sub66                     12.16       0.00       0.00       3.49       7.26       0.04       7.30        2.24   290.53   0.600
  sub67                     12.16       0.00       0.00       0.91      10.24       0.07      10.31        3.18   494.23   0.848
  sub68                     12.16       0.00       0.00       1.64       9.40       0.06       9.46        2.91   432.52   0.778
  sub69                     12.16       0.00       0.00       1.73       9.72       0.09       9.82        2.29   383.95   0.807
  sub70                     12.16      10.02       0.00       6.98      13.09       0.56      13.65        3.12   394.93   0.615
  sub71                     12.16       0.00       0.00       0.93       9.48       0.05       9.53        2.25   296.34   0.783
  sub72                     12.16       0.00       0.00       0.83       7.62       0.02       7.64        1.56   151.13   0.628
  1                         12.16      13.29       0.00       1.37      14.64       3.94      18.57        4.36   399.24   0.730
  2                         12.16       0.00       0.00       3.02       2.89       1.65       4.55        1.82   245.52   0.374
  
  
  ****************************
  Subcatchment Washoff Summary
  ****************************
  
  ------------------------------------------------------------------------------------------
                                 COD            SS            TN            TP         NH4-N
  Subcatchment                    kg            kg            kg            kg            kg
  ------------------------------------------------------------------------------------------
  sub0                         2.176         4.147         0.037         0.003         0.018
  sub1                         9.268        18.138         0.173         0.012         0.083
  sub2                         5.563        10.570         0.119         0.008         0.054
  sub3                        13.747        25.918         0.288         0.019         0.132
  sub4                        21.530        42.606         0.429         0.026         0.205
  sub5                        21.300        41.103         0.378         0.029         0.183
  sub7                         4.748         9.424         0.090         0.006         0.043
  sub8                         7.142        14.500         0.143         0.008         0.069
  sub9                         6.100        12.212         0.118         0.007         0.057
  sub10                       17.532        34.266         0.321         0.023         0.155
  sub11                       17.086        33.770         0.320         0.022         0.154
  sub12                       14.392        27.890         0.260         0.019         0.125
  sub14                       13.021        25.823         0.247         0.016         0.119
  sub15                       16.182        30.744         0.313         0.023         0.146
  sub16                       10.318        19.555         0.197         0.015         0.092
  sub17                        9.471        17.789         0.175         0.014         0.082
  sub22                       48.821        90.813         0.932         0.070         0.434
  sub23                       29.138        56.181         0.627         0.041         0.287
  sub60                      203.703       376.194         4.083         0.248         1.956
  sub61                      251.300       461.579         4.699         0.320         2.261
  sub62                      262.762       491.326         5.157         0.324         2.474
  sub63                      185.047       334.594         3.739         0.261         1.731
  sub64                      253.867       452.095         4.687         0.339         2.235
  sub65                      260.106       465.192         4.834         0.344         2.309
  sub66                      146.558       263.078         3.037         0.197         1.417
  sub67                      388.205       718.566         6.963         0.510         3.363
  sub68                      276.714       513.393         5.318         0.356         2.539
  sub69                      247.676       464.012         4.658         0.325         2.225
  sub70                      413.256       778.342         8.287         0.572         3.877
  sub71                      173.740       327.842         3.597         0.206         1.720
  sub72                      136.329       239.316         2.558         0.174         1.230
  1                          280.724       531.718         5.751         0.398         2.660
  2                           35.485        61.812         1.030         0.062         0.437
  ------------------------------------------------------------------------------------------
  System                    3783.006      6994.507        73.566         4.996        34.873
  
  
  ******************
  Node Depth Summary
  ******************
  
  ---------------------------------------------------------------------------------
                                 Average  Maximum  Maximum  Time of Max    Reported
                                   Depth    Depth      HGL   Occurrence   Max Depth
  Node                 Type       Meters   Meters   Meters  days hr:min      Meters
  ---------------------------------------------------------------------------------
  WS02001211           JUNCTION     0.77     0.83     5.67     0  03:09        0.83
  WS02001212           JUNCTION     0.47     0.55     5.62     0  03:08        0.55
  WS02001213           JUNCTION     0.71     0.82     5.59     0  03:08        0.82
  WS02003069           JUNCTION     0.50     0.68     5.26     0  03:07        0.68
  WS02003072           JUNCTION     0.56     0.73     5.10     0  03:07        0.73
  WS02003073           JUNCTION     0.34     0.45     4.52     0  03:08        0.45
  WS02003060           JUNCTION     0.44     0.60     5.53     0  03:06        0.60
  WS02003066           JUNCTION     0.24     0.36     5.92     0  03:05        0.36
  WS02003059           JUNCTION     0.76     0.88     5.57     0  03:07        0.88
  WS02003067           JUNCTION     0.57     0.79     6.11     0  03:05        0.79
  WS02004401           JUNCTION     0.68     1.14     7.14     0  03:02        1.13
  WS02004402           JUNCTION     0.71     1.14     7.10     0  03:02        1.13
  WS02004403           JUNCTION     0.73     1.12     7.05     0  03:03        1.12
  WS02004404           JUNCTION     0.80     1.18     7.03     0  03:03        1.17
  WS02004406           JUNCTION     0.81     1.12     6.95     0  03:02        1.11
  WS02004409           JUNCTION     0.50     0.87     6.64     0  03:04        0.87
  WS02004410           JUNCTION     0.52     0.87     6.59     0  03:04        0.87
  WS02004411           JUNCTION     0.53     0.86     6.54     0  03:05        0.86
  WS02004412           JUNCTION     0.55     0.84     6.48     0  03:05        0.84
  WS02004413           JUNCTION     0.70     0.98     6.45     0  03:05        0.98
  WS02004405           JUNCTION     0.80     1.15     7.00     0  03:03        1.15
  WS02006109           JUNCTION     0.76     1.31     7.93     0  03:02        1.31
  WS02006110           JUNCTION     0.75     1.15     7.73     0  03:02        1.14
  WS02006111           JUNCTION     0.23     0.66     7.36     0  03:03        0.66
  WS02006112           JUNCTION     0.85     1.42     7.30     0  03:03        1.41
  WS02006113           JUNCTION     0.34     0.65     7.54     0  03:03        0.65
  WS02006115           JUNCTION     0.58     1.09     7.23     0  03:02        1.09
  WS02006116           JUNCTION     0.66     1.15     7.19     0  03:02        1.15
  WS02006230           JUNCTION     0.74     1.52     8.26     0  03:02        1.51
  WS02006231           JUNCTION     0.49     1.21     8.34     0  03:02        1.21
  WS02006232           JUNCTION     0.62     1.36     8.40     0  03:02        1.36
  WS02006234           JUNCTION     0.55     1.32     8.48     0  03:02        1.31
  WS02006235           JUNCTION     0.58     1.37     8.54     0  03:02        1.36
  WS02006238           JUNCTION     0.60     1.40     8.54     0  03:02        1.38
  WS02006240           JUNCTION     0.49     1.28     8.58     0  03:02        1.28
  WS02006242           JUNCTION     0.53     1.33     8.60     0  03:02        1.33
  WS02006243           JUNCTION     0.41     1.21     8.63     0  03:01        1.20
  WS02006245           JUNCTION     0.38     1.17     8.65     0  03:01        1.16
  WS02006247           JUNCTION     0.39     1.17     8.67     0  03:01        1.16
  WS02006248           JUNCTION     0.33     1.10     8.68     0  03:01        1.09
  WS02006249           JUNCTION     0.35     1.09     8.69     0  02:59        1.09
  WS02006239           JUNCTION     0.55     1.35     8.56     0  03:02        1.34
  WS02006251           JUNCTION     0.32     1.42     9.09     0  03:58        1.14
  WS02006252           JUNCTION     0.22     0.98     9.22     0  03:58        0.69
  WS02006253           JUNCTION     0.35     1.46     9.10     0  03:58        1.18
  WS02006256           JUNCTION     1.67     2.35     9.28     0  00:52        2.35
  WS02004138           JUNCTION     0.19     0.20     7.45     0  00:00        0.19
  WS02004139           JUNCTION     0.71     0.77     5.68     0  03:09        0.77
  WS02004407           JUNCTION     0.22     0.37     6.68     0  03:03        0.37
  WS02006228           JUNCTION     0.77     1.44     8.09     0  03:02        1.43
  WS02006229           JUNCTION     0.75     1.49     8.18     0  03:02        1.48
  WS02006280           JUNCTION     0.07     0.20     8.47     0  03:02        0.20
  WS02006284           JUNCTION     0.38     0.56     8.96     0  03:02        0.56
  WS02006287           JUNCTION     0.11     0.30     9.25     0  03:01        0.30
  WSF200               JUNCTION     0.22     0.40     5.64     0  03:05        0.40
  HS02004901           JUNCTION     0.13     0.29    10.12     0  03:01        0.29
  HS02004881           JUNCTION     0.01     0.04     9.07     0  03:01        0.04
  HS02004876           JUNCTION     0.05     0.12     9.15     0  03:01        0.12
  HS02004870           JUNCTION     0.02     0.07     9.35     0  03:01        0.07
  HS02004862           JUNCTION     0.02     0.08     9.46     0  03:01        0.08
  HS02004856           JUNCTION     0.08     0.13     9.55     0  03:01        0.13
  HS02004852           JUNCTION     0.01     0.05     9.56     0  03:01        0.05
  HS02004848           JUNCTION     0.01     0.05     9.65     0  03:01        0.05
  HS02004842           JUNCTION     0.34     0.38     9.65     0  03:01        0.38
  HS02004837           JUNCTION     0.03     0.07     9.65     0  03:01        0.07
  HS02004830           JUNCTION     0.04     0.08     9.55     0  03:01        0.08
  HS02004824           JUNCTION     0.03     0.06     9.47     0  03:01        0.06
  HS02004817           JUNCTION     0.45     0.61     9.45     0  03:01        0.61
  HS02004807           JUNCTION     0.13     0.28     9.45     0  03:01        0.28
  HS02004802           JUNCTION     0.17     0.31     9.44     0  03:01        0.31
  HS02004799           JUNCTION     0.13     0.35     9.56     0  03:01        0.35
  HS02004792           JUNCTION     0.04     0.15     9.67     0  03:01        0.15
  HS02004788           JUNCTION     0.03     0.11    10.01     0  03:01        0.11
  HS02004785           JUNCTION     0.05     0.18    10.09     0  03:01        0.18
  HS02004777           JUNCTION     0.16     0.31    10.11     0  03:01        0.31
  HS02004770           JUNCTION     0.13     0.29    10.12     0  03:01        0.29
  HS02004480           JUNCTION     0.09     0.28     9.52     0  03:01        0.28
  HS02004479           JUNCTION     0.13     0.32     9.52     0  03:01        0.32
  HS02004478           JUNCTION     0.07     0.20     9.42     0  03:01        0.20
  YS02001745           JUNCTION     0.73     0.92     8.44     0  03:00        0.91
  YS02001748           JUNCTION     1.13     1.96     9.04     0  02:28        1.35
  YS02001751           JUNCTION     1.31     1.96     8.84     0  02:28        1.55
  YS02001754           JUNCTION     1.56     1.98     8.59     0  02:28        1.82
  YS02001762           JUNCTION     1.76     2.05     8.45     0  03:39        2.02
  YS02001765           JUNCTION     1.71     1.99     8.44     0  03:39        1.97
  YS02001767           JUNCTION     1.68     1.95     8.44     0  03:39        1.93
  YS02001770           JUNCTION     1.67     1.92     8.42     0  02:58        1.91
  YS02001774           JUNCTION     1.74     1.98     8.41     0  02:58        1.97
  YS02001779           JUNCTION     1.48     1.68     8.37     0  02:18        1.68
  YS02001882           JUNCTION     0.57     1.62     8.34     0  02:45        1.61
  YS02001884           JUNCTION     0.66     1.72     8.34     0  02:59        1.71
  YS02001759           JUNCTION     1.79     2.08     8.44     0  03:39        2.05
  YS02001887           JUNCTION     0.74     1.80     8.34     0  02:45        1.79
  YS02001890           JUNCTION     0.77     1.81     8.32     0  02:45        1.81
  YS02001898           JUNCTION     0.54     1.56     8.29     0  03:01        1.55
  YS02001901           JUNCTION     0.65     1.68     8.29     0  03:01        1.67
  YS02001904           JUNCTION     0.63     1.64     8.27     0  02:45        1.63
  YS02001907           JUNCTION     0.96     1.96     8.25     0  02:45        1.96
  YS02001910           JUNCTION     0.75     1.78     8.29     0  02:46        1.77
  YS02001915           JUNCTION     0.55     1.59     8.31     0  02:46        1.57
  YS02001918           JUNCTION     0.29     1.27     8.33     0  02:46        1.25
  YS02001619           JUNCTION     1.27     1.61     8.54     0  02:26        1.48
  YS02001629           JUNCTION     1.62     1.85     8.40     0  02:26        1.84
  YS02001641           JUNCTION     1.72     1.94     8.38     0  02:40        1.93
  YS02001644           JUNCTION     1.72     1.92     8.35     0  02:34        1.92
  YS02001652           JUNCTION     1.57     2.12     8.72     0  02:20        1.96
  YS02001655           JUNCTION     1.34     2.20     9.05     0  02:18        1.86
  YS02001920           JUNCTION     0.39     1.34     8.35     0  02:46        1.31
  YS02001923           JUNCTION     0.22     1.11     8.37     0  02:46        1.07
  YS02001926           JUNCTION     0.28     0.93     8.37     0  02:46        0.88
  YS02001929           JUNCTION     0.16     0.69     8.38     0  02:46        0.67
  YS02001658           JUNCTION     1.07     2.12     9.26     0  04:06        1.74
  YS02001661           JUNCTION     0.84     2.06     9.46     0  04:06        1.96
  YS02001664           JUNCTION     0.38     0.57     8.50     0  02:38        0.57
  YS02001622           JUNCTION     1.29     1.62     8.52     0  02:26        1.50
  YS02001633           JUNCTION     1.71     1.94     8.40     0  02:35        1.93
  YS02001649           JUNCTION     1.77     2.05     8.44     0  02:28        2.05
  YS02001757           JUNCTION     1.89     2.18     8.44     0  02:57        2.16
  YS02001895           JUNCTION     0.53     1.56     8.31     0  02:45        1.55
  YS02001625           JUNCTION     1.57     1.78     8.38     0  02:26        1.78
  YS02163301           JUNCTION     1.65     1.89     8.40     0  02:27        1.88
  YS02163601           JUNCTION     1.76     1.99     8.39     0  02:34        1.98
  YS02164001           JUNCTION     1.70     1.92     8.38     0  02:35        1.91
  YS02001647           JUNCTION     1.55     1.82     8.43     0  02:28        1.80
  YSB1154              JUNCTION     0.27     0.47     9.52     0  03:01        0.47
  YSB6556              JUNCTION     0.16     0.35     9.52     0  03:01        0.35
  YSB1174              JUNCTION     0.22     0.41     9.52     0  03:01        0.41
  YSB1171              JUNCTION     0.42     0.62     9.52     0  03:01        0.62
  YS02006553           JUNCTION     0.96     1.97     8.25     0  02:58        1.96
  YS02006561           JUNCTION     0.32     1.08     7.74     0  02:53        1.07
  YS02006556           JUNCTION     0.93     1.92     8.23     0  03:00        1.92
  YS02006558           JUNCTION     0.97     1.96     8.23     0  02:59        1.95
  YS02001783           JUNCTION     0.54     1.47     7.61     0  02:58        1.46
  YS02001784           JUNCTION     0.55     1.59     7.65     0  02:37        1.41
  YS02001786           JUNCTION     0.48     1.83     7.86     0  02:37        1.26
  YS02001788           JUNCTION     0.41     1.73     7.71     0  02:37        1.12
  YS02001790           JUNCTION     0.51     1.96     7.60     0  02:36        1.29
  YS02001791           JUNCTION     0.45     2.13     7.60     0  02:36        1.27
  YS02001793           JUNCTION     0.58     2.24     7.07     0  04:35        1.80
  WSC                  OUTFALL      0.34     0.45     1.12     0  03:08        0.45
  JK-storage           STORAGE      2.62     5.80     6.60     0  02:01        5.80
  CC-storage           STORAGE      1.15     1.42     8.42     0  03:12        1.42
  XR-storage           STORAGE      6.44     7.72     5.72     0  02:55        7.72
  
  
  *******************
  Node Inflow Summary
  *******************
  
  -------------------------------------------------------------------------------------------------
                                  Maximum  Maximum                  Lateral       Total        Flow
                                  Lateral    Total  Time of Max      Inflow      Inflow     Balance
                                   Inflow   Inflow   Occurrence      Volume      Volume       Error
  Node                 Type           LPS      LPS  days hr:min    10^6 ltr    10^6 ltr     Percent
  -------------------------------------------------------------------------------------------------
  WS02001211           JUNCTION      7.35   391.07     0  03:14       0.207        10.1       0.392
  WS02001212           JUNCTION      0.00   394.44     0  03:14           0          10       0.237
  WS02001213           JUNCTION      0.00   397.46     0  03:14           0          10       0.267
  WS02003069           JUNCTION      0.32  1214.45     0  03:07     0.00902        18.2       0.157
  WS02003072           JUNCTION      0.00  1214.39     0  03:07           0        18.1       0.197
  WS02003073           JUNCTION      1.82  1216.40     0  03:08      0.0514        18.1       0.223
  WS02003060           JUNCTION     16.53  1213.92     0  03:06       0.466        18.2       0.150
  WS02003066           JUNCTION      0.00   827.51     0  03:05           0        7.76       0.040
  WS02003059           JUNCTION      0.00   401.47     0  03:14           0          10       0.384
  WS02003067           JUNCTION      0.00   827.12     0  03:05           0        7.77       0.089
  WS02004401           JUNCTION      0.00   831.35     0  03:03           0        7.94       0.209
  WS02004402           JUNCTION      0.00   831.99     0  03:03           0        7.93       0.201
  WS02004403           JUNCTION      0.00   831.60     0  03:03           0        7.91       0.188
  WS02004404           JUNCTION      0.16   831.84     0  03:03     0.00457         7.9       0.133
  WS02004406           JUNCTION      0.00   831.75     0  03:03           0        7.88       0.356
  WS02004409           JUNCTION      0.00   831.33     0  03:03           0        7.84       0.128
  WS02004410           JUNCTION      0.00   828.67     0  03:04           0        7.83       0.152
  WS02004411           JUNCTION      0.00   827.45     0  03:04           0        7.82       0.163
  WS02004412           JUNCTION      0.00   827.06     0  03:05           0        7.81       0.185
  WS02004413           JUNCTION      0.00   827.03     0  03:05           0        7.79       0.290
  WS02004405           JUNCTION      0.04   831.82     0  03:03     0.00107        7.89       0.212
  WS02006109           JUNCTION      1.23   819.10     0  03:02      0.0347        7.97       0.220
  WS02006110           JUNCTION      0.00   819.27     0  03:02           0        7.95       0.223
  WS02006111           JUNCTION      0.00   817.62     0  03:03           0        7.92       0.038
  WS02006112           JUNCTION     16.72   831.02     0  03:03      0.0747           8       0.307
  WS02006113           JUNCTION      0.00   819.14     0  03:02           0        7.93       0.094
  WS02006115           JUNCTION      0.00   831.27     0  03:03           0        7.97       0.193
  WS02006116           JUNCTION      0.00   831.27     0  03:03           0        7.96       0.161
  WS02006230           JUNCTION     10.28   530.82     0  05:02        0.29         5.8       0.168
  WS02006231           JUNCTION      0.00   520.50     0  05:01           0        5.51       0.127
  WS02006232           JUNCTION      0.00   520.42     0  05:02           0        5.53       0.285
  WS02006234           JUNCTION      0.00   521.24     0  05:01           0        5.53       0.085
  WS02006235           JUNCTION      0.00   521.41     0  05:02           0        5.64       0.193
  WS02006238           JUNCTION      0.00   326.55     0  05:01           0        2.23       0.286
  WS02006240           JUNCTION      0.00   325.94     0  05:01           0        2.17       0.466
  WS02006242           JUNCTION      0.00   326.12     0  05:01           0        2.14       0.599
  WS02006243           JUNCTION      0.00   326.63     0  05:01           0        2.12       0.419
  WS02006245           JUNCTION      0.00   326.47     0  05:01           0        2.12       0.517
  WS02006247           JUNCTION      0.00   327.21     0  05:01           0        2.12       0.309
  WS02006248           JUNCTION      0.00   327.56     0  05:01           0        2.12       0.187
  WS02006249           JUNCTION      0.00   412.49     0  04:00           0        2.15       0.466
  WS02006239           JUNCTION      0.00   326.50     0  05:01           0         2.2       0.218
  WS02006251           JUNCTION      0.08   408.60     0  04:00     0.00217        2.19       0.376
  WS02006252           JUNCTION      0.00   399.91     0  04:00           0        1.74       0.031
  WS02006253           JUNCTION      1.99    92.90     0  04:59     0.00928       0.452       0.856
  WS02006256           JUNCTION      0.00   983.00     0  02:10           0        9.37       0.005
  WS02004138           JUNCTION      0.00   380.00     0  00:00           0        9.92       0.069
  WS02004139           JUNCTION      0.32   394.45     0  00:00     0.00905        9.92       0.452
  WS02004407           JUNCTION      0.00   831.72     0  03:03           0        7.85       0.059
  WS02006228           JUNCTION      0.00   817.89     0  03:02           0        7.95       0.157
  WS02006229           JUNCTION      0.00   819.23     0  03:01           0        7.96       0.159
  WS02006280           JUNCTION      0.00   413.64     0  03:02           0        2.17       0.005
  WS02006284           JUNCTION      0.10   413.59     0  03:02      0.0027        2.17       0.041
  WS02006287           JUNCTION      0.00   413.25     0  03:01           0        2.17       0.033
  WSF200               JUNCTION      0.00   827.63     0  03:05           0        7.76       0.034
  HS02004901           JUNCTION     20.36    20.36     0  03:01      0.0902      0.0904       1.990
  HS02004881           JUNCTION      7.95    84.19     0  03:01      0.0378        0.41       0.079
  HS02004876           JUNCTION     14.96    76.75     0  03:01      0.0728       0.373       0.148
  HS02004870           JUNCTION     14.89    62.15     0  03:01      0.0716         0.3       0.037
  HS02004862           JUNCTION     15.28    47.68     0  03:01      0.0788       0.229       0.077
  HS02004856           JUNCTION     11.18    32.72     0  03:01      0.0539       0.152       0.963
  HS02004852           JUNCTION      0.00    21.94     0  03:01           0      0.0979       0.059
  HS02004848           JUNCTION     34.61    34.61     0  03:01       0.174       0.174       0.028
  HS02004842           JUNCTION      0.00    12.41     0  03:01           0      0.0895      16.998
  HS02004837           JUNCTION     31.84    43.95     0  03:01       0.303        0.38       0.214
  HS02004830           JUNCTION      0.15    43.86     0  03:01     0.00423        0.37       0.334
  HS02004824           JUNCTION     42.39    85.90     0  03:01       0.225       0.594       0.091
  HS02004817           JUNCTION      0.60    86.29     0  03:01      0.0169        0.61       2.809
  HS02004807           JUNCTION     27.35   112.31     0  03:01       0.131       0.726       0.604
  HS02004802           JUNCTION      0.00   111.37     0  03:01           0       0.723       0.548
  HS02004799           JUNCTION     22.08   258.95     0  03:01       0.107        1.24       0.223
  HS02004792           JUNCTION    102.90   238.00     0  03:01        0.47        1.14       0.036
  HS02004788           JUNCTION     34.16   135.94     0  03:01       0.199       0.669       0.058
  HS02004785           JUNCTION      0.15   103.52     0  03:01     0.00423       0.471       0.106
  HS02004777           JUNCTION      0.03   104.16     0  03:01    0.000846       0.472       1.115
  HS02004770           JUNCTION     85.35   105.10     0  03:01       0.385       0.473       0.659
  HS02004480           JUNCTION      0.00   302.46     0  03:01           0        1.46       0.076
  HS02004479           JUNCTION      0.00    44.90     0  03:02           0       0.232       0.317
  HS02004478           JUNCTION      0.00   413.11     0  03:01           0        2.17       0.014
  YS02001745           JUNCTION    336.84   390.36     0  02:26        2.69         2.7       0.415
  YS02001748           JUNCTION      0.04   560.59     0  02:27     0.00127        2.69       0.820
  YS02001751           JUNCTION      0.01   360.89     0  02:17     0.00031        2.65       0.885
  YS02001754           JUNCTION      0.26   341.13     0  03:01     0.00733        2.64       0.943
  YS02001762           JUNCTION      0.00   290.58     0  02:38           0        1.98       1.075
  YS02001765           JUNCTION      0.00   289.98     0  02:38           0        1.98       1.238
  YS02001767           JUNCTION      0.54   290.12     0  02:38      0.0151           2       1.800
  YS02001770           JUNCTION    415.94   563.88     0  03:01        3.01        3.52       0.904
  YS02001774           JUNCTION      0.00   564.77     0  03:01           0        2.01       1.246
  YS02001779           JUNCTION      0.01   563.96     0  03:01    0.000141        1.98       0.786
  YS02001882           JUNCTION      0.00    36.18     0  02:39           0        0.02      12.617
  YS02001884           JUNCTION      0.00    70.79     0  02:38           0      0.0577      12.023
  YS02001759           JUNCTION    399.49   571.43     0  02:39        2.78        4.22       0.539
  YS02001887           JUNCTION    494.68   495.11     0  03:01        3.19        3.23       0.267
  YS02001890           JUNCTION      0.00   495.35     0  03:01           0        3.18       0.295
  YS02001898           JUNCTION      0.00   494.80     0  03:01           0        3.16       0.098
  YS02001901           JUNCTION      0.00   495.38     0  03:01           0        3.16       0.218
  YS02001904           JUNCTION      0.00   495.27     0  03:01           0        3.16       0.203
  YS02001907           JUNCTION      0.00   950.57     0  03:01           0        7.02       0.348
  YS02001910           JUNCTION      0.00   457.29     0  02:47           0        3.87       0.311
  YS02001915           JUNCTION    296.36   456.81     0  02:47        2.25         3.9       0.154
  YS02001918           JUNCTION      0.00   217.62     0  02:47           0        1.66       0.091
  YS02001619           JUNCTION    290.53   290.53     0  03:01        2.24        2.24       0.542
  YS02001629           JUNCTION      0.00   218.64     0  02:17           0        1.69       1.731
  YS02001641           JUNCTION      0.00   398.36     0  02:35           0        4.25       0.495
  YS02001644           JUNCTION    321.01  1355.36     0  03:01        2.59          11       0.240
  YS02001652           JUNCTION      0.00   376.13     0  03:01           0        2.34       0.999
  YS02001655           JUNCTION      0.15   406.65     0  02:18     0.00434        2.37       1.026
  YS02001920           JUNCTION      2.87   216.97     0  02:47      0.0809        1.65       0.169
  YS02001923           JUNCTION      0.04   239.69     0  02:47     0.00106        1.56       0.048
  YS02001926           JUNCTION      0.05   199.48     0  02:47     0.00147        1.56       0.209
  YS02001929           JUNCTION    151.13   151.13     0  03:01        1.56        1.56       0.038
  YS02001658           JUNCTION      0.00   598.44     0  02:23           0        2.41       0.945
  YS02001661           JUNCTION      0.00   642.71     0  02:37           0        2.76      -0.222
  YS02001664           JUNCTION    361.21   361.21     0  03:01        2.38        2.74       0.241
  YS02001622           JUNCTION      0.00   291.15     0  03:01           0        2.22       1.443
  YS02001633           JUNCTION    326.74   397.18     0  02:35        2.66        4.31       0.751
  YS02001649           JUNCTION      0.00   832.55     0  02:35           0        6.16       0.605
  YS02001757           JUNCTION      0.00  1580.00     0  02:35           0        8.36       1.113
  YS02001895           JUNCTION      0.00   494.71     0  03:01           0        3.17       0.161
  YS02001625           JUNCTION      0.00   290.55     0  03:00           0        2.19       1.803
  YS02163301           JUNCTION      0.00   203.69     0  02:26           0        1.67       1.451
  YS02163601           JUNCTION      0.11   397.84     0  02:35      0.0031        4.27       0.703
  YS02164001           JUNCTION      0.00   398.15     0  02:35           0        4.25       0.470
  YS02001647           JUNCTION      0.00   674.05     0  03:14           0        5.46       0.514
  YSB1154              JUNCTION     26.18    26.18     0  03:01       0.129        0.13       1.131
  YSB6556              JUNCTION      0.00    25.83     0  03:01           0        0.13       0.969
  YSB1174              JUNCTION     20.52    20.52     0  03:01      0.0948      0.0953       1.368
  YSB1171              JUNCTION      0.00    45.31     0  03:01           0       0.231       2.821
  YS02006553           JUNCTION      0.00   704.09     0  03:31           0        6.56       0.239
  YS02006561           JUNCTION      0.00   981.39     0  03:17           0        9.44       0.008
  YS02006556           JUNCTION      0.00   704.23     0  03:31           0        6.56       0.175
  YS02006558           JUNCTION    433.40   982.35     0  03:16        2.93        9.47       0.053
  YS02001783           JUNCTION      0.00   981.52     0  03:17           0        9.44       0.024
  YS02001784           JUNCTION      1.06   982.86     0  03:16      0.0299        9.46       0.036
  YS02001786           JUNCTION      0.06   982.54     0  03:19     0.00159        9.46       0.034
  YS02001788           JUNCTION      0.07   982.56     0  03:14       0.002        9.46       0.020
  YS02001790           JUNCTION      0.15   982.77     0  03:17     0.00437        9.46       0.015
  YS02001791           JUNCTION      0.00   982.79     0  03:14           0        9.46       0.015
  YS02001793           JUNCTION      0.00   983.24     0  03:17           0        9.46      -0.032
  WSC                  OUTFALL       0.00  1216.77     0  03:08           0        18.1       0.000
  JK-storage           STORAGE       0.00   983.38     0  03:14           0        9.62     -10.282
  CC-storage           STORAGE       0.00  1579.31     0  02:35           0        5.67       1.148
  XR-storage           STORAGE     844.76   844.76     0  03:01        11.8        12.4      -0.000
  
  
  **********************
  Node Surcharge Summary
  **********************
  
  Surcharging occurs when water rises above the top of the highest conduit.
  ---------------------------------------------------------------------
                                               Max. Height   Min. Depth
                                   Hours       Above Crown    Below Rim
  Node                 Type      Surcharged         Meters       Meters
  ---------------------------------------------------------------------
  WS02004401           JUNCTION        0.20          0.138        1.522
  WS02004402           JUNCTION        0.22          0.139        1.601
  WS02004403           JUNCTION        0.23          0.123        1.907
  WS02004404           JUNCTION        0.45          0.177        2.603
  WS02004406           JUNCTION        0.32          0.116        2.334
  WS02004405           JUNCTION        0.35          0.154        2.646
  WS02006109           JUNCTION        2.48          0.492        1.328
  WS02006110           JUNCTION        1.14          0.240        1.610
  WS02006112           JUNCTION        1.44          0.416        1.264
  WS02006115           JUNCTION        0.13          0.081        2.169
  WS02006116           JUNCTION        0.14          0.086        2.204
  WS02006230           JUNCTION        0.50          0.440        1.130
  WS02006231           JUNCTION        0.67          0.504        1.026
  WS02006232           JUNCTION        2.38          0.665        0.815
  WS02006234           JUNCTION        1.13          0.599        0.641
  WS02006235           JUNCTION        1.49          0.663        0.627
  WS02006238           JUNCTION        1.62          0.681        0.749
  WS02006240           JUNCTION        0.78          0.573        0.817
  WS02006242           JUNCTION        0.81          0.605        0.215
  WS02006243           JUNCTION        0.58          0.499        0.271
  WS02006245           JUNCTION        0.51          0.460        0.390
  WS02006247           JUNCTION        0.51          0.458        0.302
  WS02006248           JUNCTION        0.42          0.375        0.005
  WS02006249           JUNCTION        0.44          0.390        0.000
  WS02006239           JUNCTION        0.94          0.609        0.681
  WS02006251           JUNCTION        0.16          0.389        0.791
  WS02006252           JUNCTION        0.48          0.579        0.521
  WS02006253           JUNCTION        0.18          0.415        2.065
  WS02006256           JUNCTION        6.82          2.050        0.000
  WS02006228           JUNCTION        2.40          0.613        1.587
  YS02001748           JUNCTION        5.30          0.881        0.309
  YS02001751           JUNCTION        5.49          0.956        0.244
  YS02001754           JUNCTION        5.70          0.928        0.222
  YS02001762           JUNCTION        5.87          1.045        0.105
  YS02001765           JUNCTION        5.84          0.990        0.110
  YS02001767           JUNCTION        5.81          0.947        0.083
  YS02001770           JUNCTION        5.80          0.894        0.026
  YS02001774           JUNCTION        5.86          0.983        0.067
  YS02001779           JUNCTION        5.68          0.680        0.000
  YS02001882           JUNCTION        0.88          0.622        0.208
  YS02001884           JUNCTION        0.91          0.660        0.210
  YS02001759           JUNCTION        5.89          1.080        0.130
  YS02001887           JUNCTION        0.97          0.748        0.202
  YS02001890           JUNCTION        1.00          0.760        0.000
  YS02001898           JUNCTION        0.85          0.529        0.211
  YS02001901           JUNCTION        0.94          0.676        0.194
  YS02001904           JUNCTION        0.92          0.637        0.213
  YS02001907           JUNCTION        1.78          0.950        0.000
  YS02001910           JUNCTION        1.05          0.778        0.322
  YS02001915           JUNCTION        0.87          0.590        0.410
  YS02001918           JUNCTION        0.70          0.269        0.541
  YS02001619           JUNCTION        5.47          0.610        0.000
  YS02001629           JUNCTION        5.48          0.470        0.000
  YS02001641           JUNCTION        5.85          0.938        0.162
  YS02001644           JUNCTION        5.85          0.920        0.000
  YS02001652           JUNCTION        5.73          1.092        0.038
  YS02001655           JUNCTION        5.51          1.200        0.000
  YS02001920           JUNCTION        0.73          0.344        0.796
  YS02001658           JUNCTION        5.33          1.120        0.180
  YS02001661           JUNCTION        0.19          0.986        0.404
  YS02001622           JUNCTION        5.51          0.620        0.000
  YS02001633           JUNCTION        5.83          0.924        0.136
  YS02001649           JUNCTION        5.87          1.050        0.000
  YS02001757           JUNCTION        5.98          1.179        0.031
  YS02001895           JUNCTION        0.86          0.564        0.186
  YS02001625           JUNCTION        5.76          0.780        0.000
  YS02163301           JUNCTION        5.81          0.887        0.143
  YS02163601           JUNCTION        5.87          0.989        0.091
  YS02164001           JUNCTION        5.84          0.920        0.180
  YS02001647           JUNCTION        5.75          0.822        0.078
  YS02006553           JUNCTION        1.85          0.967        0.223
  YS02006561           JUNCTION        0.75          0.283        0.867
  YS02006556           JUNCTION        1.30          0.883        0.467
  YS02006558           JUNCTION        1.26          0.864        0.536
  YS02001783           JUNCTION        1.00          0.673        0.927
  YS02001784           JUNCTION        0.98          0.786        0.704
  YS02001786           JUNCTION        0.92          1.029        0.401
  YS02001788           JUNCTION        0.87          0.935        0.545
  YS02001790           JUNCTION        1.80          1.157        0.000
  YS02001791           JUNCTION        1.91          1.330        0.590
  YS02001793           JUNCTION        2.21          1.242        1.358
  
  
  *********************
  Node Flooding Summary
  *********************
  
  Flooding refers to all water that overflows a node, whether it ponds or not.
  --------------------------------------------------------------------------
                                                             Total   Maximum
                                 Maximum   Time of Max       Flood    Ponded
                        Hours       Rate    Occurrence      Volume     Depth
  Node                 Flooded       LPS   days hr:min    10^6 ltr    Meters
  --------------------------------------------------------------------------
  WS02006249              0.14    103.37      0  03:59       0.021     0.000
  WS02006256              3.50    810.44      0  03:02       5.875     0.000
  YS02001779              2.86    563.92      0  03:01       1.959     0.000
  YS02001890              0.01      1.70      0  02:45       0.000     0.000
  YS02001907              0.57    414.28      0  03:01       0.449     0.000
  YS02001619              0.01     20.81      0  02:27       0.000     0.000
  YS02001629              0.01     31.40      0  02:26       0.000     0.000
  YS02001644              5.15   1354.39      0  03:01       9.686     0.000
  YS02001655              0.01    219.31      0  02:18       0.000     0.000
  YS02001622              0.01     14.80      0  02:27       0.000     0.000
  YS02001649              0.04     30.77      0  04:06       0.001     0.000
  YS02001625              1.19    235.43      0  03:01       0.465     0.000
  YS02001790              0.01    163.93      0  02:36       0.000     0.000
  JK-storage              0.99    793.69      0  02:40       1.239     0.000
  XR-storage              3.05    464.72      0  03:01       1.875     0.000
  
  
  **********************
  Storage Volume Summary
  **********************
  
  --------------------------------------------------------------------------------------------------
                         Average     Avg  Evap Exfil       Maximum     Max    Time of Max    Maximum
                          Volume    Pcnt  Pcnt  Pcnt        Volume    Pcnt     Occurrence    Outflow
  Storage Unit           1000 m3    Full  Loss  Loss       1000 m3    Full    days hr:min        LPS
  --------------------------------------------------------------------------------------------------
  JK-storage               0.131      45     0     0         0.291     100       0  02:01     983.00
  CC-storage               3.203      20     0     0         3.962      25       0  03:12     399.91
  XR-storage               0.772      83     0     0         0.926     100       0  02:55     380.00
  
  
  ***********************
  Outfall Loading Summary
  ***********************
  
  ---------------------------------------------------------------------------------------------------------------------------------
                         Flow       Avg       Max       Total         Total         Total         Total         Total         Total
                         Freq      Flow      Flow      Volume           COD            SS            TN            TP         NH4-N
  Outfall Node           Pcnt       LPS       LPS    10^6 ltr            kg            kg            kg            kg            kg
  ---------------------------------------------------------------------------------------------------------------------------------
  WSC                  100.00    737.92   1216.77      18.109      2198.178      3745.029       148.519        17.644        90.310
  ---------------------------------------------------------------------------------------------------------------------------------
  System               100.00    737.92   1216.77      18.109      2198.178      3745.029       148.519        17.644        90.310
  
  
  ********************
  Link Flow Summary
  ********************
  
  -----------------------------------------------------------------------------
                                 Maximum  Time of Max   Maximum    Max/    Max/
                                  |Flow|   Occurrence   |Veloc|    Full    Full
  Link                 Type          LPS  days hr:min     m/sec    Flow   Depth
  -----------------------------------------------------------------------------
  WS02003066WSF200     CONDUIT    827.63     0  03:05      2.94    0.14    0.30
  WS02006287WS02006284 CONDUIT    413.50     0  03:02      2.04    0.19    0.30
  WS02006284WS02006280 CONDUIT    413.64     0  03:02      2.28    0.17    0.28
  WS02006280WS02006229 CONDUIT    413.64     0  03:02      3.63    0.09    0.25
  WS02006229WS02006228 CONDUIT    817.89     0  03:02      1.63    2.71    1.00
  WS02006256WS02006235 CONDUIT    264.10     0  00:52      3.74    2.80    1.00
  WS02006253WS02006251 CONDUIT    113.97     0  02:59      0.60    0.34    1.00
  WS02006252WS02006251 CONDUIT    400.01     0  04:00      3.18    1.47    1.00
  WS02006251WS02006249 CONDUIT    412.49     0  04:00      1.07    1.19    1.00
  WS02006249WS02006248 CONDUIT    327.56     0  05:01      1.09    1.79    1.00
  WS02006248WS02006247 CONDUIT    327.21     0  05:01      1.05    0.71    1.00
  WS02006247WS02006245 CONDUIT    326.47     0  05:01      1.01    2.59    1.00
  WS02006245WS02006243 CONDUIT    326.63     0  05:01      1.07    0.97    1.00
  WS02006243WS02006242 CONDUIT    326.12     0  05:01      0.91    0.70    1.00
  WS02006242WS02006240 CONDUIT    325.94     0  05:01      0.85    1.29    1.00
  WS02006240WS02006239 CONDUIT    326.50     0  05:01      0.90    1.03    1.00
  WS02006239WS02006238 CONDUIT    326.55     0  05:01      0.85    1.04    1.00
  WS02006238WS02006235 CONDUIT    326.73     0  05:02      1.05    0.73    1.00
  WS02006235WS02006234 CONDUIT    521.24     0  05:01      1.35    5.50    1.00
  WS02006234WS02006232 CONDUIT    520.42     0  05:02      1.35    1.05    1.00
  WS02006232WS02006231 CONDUIT    520.50     0  05:01      1.35    1.09    1.00
  WS02006231WS02006230 CONDUIT    520.54     0  05:02      1.38    7.90    1.00
  WS02006230WS02006229 CONDUIT    533.09     0  05:01      1.39   11.86    1.00
  WS02006228WS02006109 CONDUIT    817.87     0  03:02      1.63    3.57    1.00
  WS02006116WS02004401 CONDUIT    831.35     0  03:03      1.06    1.15    1.00
  WS02006115WS02006116 CONDUIT    831.27     0  03:03      1.06    1.07    1.00
  WS02006113WS02006111 CONDUIT    817.62     0  03:03      2.60    0.98    0.82
  WS02006112WS02006115 CONDUIT    831.27     0  03:03      1.06    0.49    1.00
  WS02006111WS02006112 CONDUIT    819.05     0  03:03      1.73    0.39    0.90
  WS02006110WS02006113 CONDUIT    819.14     0  03:02      1.74    0.75    0.91
  WS02006109WS02006110 CONDUIT    819.27     0  03:02      1.63    1.58    1.00
  WS02004411WS02004412 CONDUIT    827.06     0  03:05      1.16    1.17    0.85
  WS02004401WS02004402 CONDUIT    831.99     0  03:03      1.06    1.00    1.00
  WS02004413WS02003067 CONDUIT    827.12     0  03:05      1.42    0.35    0.70
  WS02004412WS02004413 CONDUIT    827.03     0  03:05      1.10    0.55    0.91
  WS02004410WS02004411 CONDUIT    827.45     0  03:04      1.15    1.13    0.86
  WS02004409WS02004410 CONDUIT    828.67     0  03:04      1.15    1.07    0.87
  WS02004407WS02004409 CONDUIT    831.33     0  03:03      1.64    0.29    0.62
  WS02004406WS02004407 CONDUIT    831.72     0  03:03      1.45    0.37    0.69
  WS02004405WS02004406 CONDUIT    831.75     0  03:03      1.06    1.64    1.00
  WS02004404WS02004405 CONDUIT    831.78     0  03:03      1.06    8.15    1.00
  WS02004403WS02004404 CONDUIT    831.68     0  03:03      1.06    0.60    1.00
  WS02004402WS02004403 CONDUIT    831.60     0  03:03      1.06    1.19    1.00
  WS02004139WS02001211 CONDUIT    383.72     0  03:14      0.90    0.49    0.63
  WS02004138WS02004139 CONDUIT    394.13     0  00:00      3.62    0.08    0.46
  WS02003067WS02003066 CONDUIT    827.51     0  03:05      1.54    0.27    0.48
  WS02001213WS02003059 CONDUIT    401.47     0  03:14      0.89    0.66    0.84
  WS02001212WS02001213 CONDUIT    397.46     0  03:14      1.32    0.61    0.53
  WS02001211WS02001212 CONDUIT    394.44     0  03:14      0.78    0.30    0.69
  WS02003072WS02003073 CONDUIT   1214.58     0  03:08      1.89    2.62    0.55
  WS02003069WS02003072 CONDUIT   1214.39     0  03:07      1.76    0.58    0.59
  WS02003060WS02003069 CONDUIT   1214.13     0  03:07      1.98    0.48    0.53
  WS02003059WS02003060 CONDUIT    406.88     0  03:13      0.95    0.27    0.74
  HS02004901HS02004770 CONDUIT     20.52     0  03:01      0.07    0.08    0.42
  HS02004876HS02004881 CONDUIT     76.55     0  03:01      0.95    0.81    0.12
  HS02004870HS02004876 CONDUIT     61.90     0  03:01      0.65    0.04    0.14
  HS02004842HS02004848 CONDUIT     12.41     0  03:01      0.06    0.01    0.31
  HS02004837HS02004842 CONDUIT     12.98     0  03:02      0.42    0.01    0.32
  HS02004830HS02004837 CONDUIT     43.71     0  03:01      0.57    0.04    0.11
  HS02004824HS02004830 CONDUIT     43.67     0  03:01      0.59    0.06    0.11
  HS02004817HS02004824 CONDUIT     85.69     0  03:01      0.26    0.04    0.48
  HS02004770HS02004777 CONDUIT    104.13     0  03:01      0.35    0.19    0.43
  HS02004799HS02004480 CONDUIT    258.30     0  03:01      0.83    0.33    0.44
  HS02004792HS02004799 CONDUIT    237.06     0  03:01      0.95    0.15    0.36
  HS02004788HS02004792 CONDUIT    135.44     0  03:01      1.06    0.09    0.18
  HS02004785HS02004788 CONDUIT    103.22     0  03:02      0.71    0.78    0.21
  HS02004777HS02004785 CONDUIT    103.37     0  03:01      0.42    0.13    0.35
  HS02004480HS02004478 CONDUIT    302.31     0  03:01      1.26    1.27    0.34
  HS02004479HS02004480 CONDUIT     46.29     0  03:02      0.32    0.04    0.43
  HS02004862HS02004870 CONDUIT     47.43     0  03:01      0.66    0.05    0.10
  HS02004848HS02004852 CONDUIT     21.94     0  03:01      0.45    0.02    0.07
  HS02004856HS02004862 CONDUIT     32.47     0  03:01      0.48    0.03    0.10
  HS02004852HS02004856 CONDUIT     21.86     0  03:02      0.25    0.02    0.13
  HS02004802HS02004478 CONDUIT    111.52     0  03:02      0.45    0.10    0.36
  HS02004478WS02006287 CONDUIT    413.25     0  03:01      1.75    0.12    0.26
  HS02004817HS02004807 CONDUIT     86.14     0  03:01      0.19    0.05    0.63
  HS02004807HS02004802 CONDUIT    111.37     0  03:01      0.38    0.21    0.42
  YS02001759YS02001757 CONDUIT    571.06     0  02:39      0.73    0.41    1.00
  YS02001762YS02001759 CONDUIT    290.65     0  02:38      0.37    0.33    1.00
  YS02001765YS02001762 CONDUIT    290.58     0  02:38      0.37    0.27    1.00
  YS02001770YS02001767 CONDUIT    289.59     0  02:38      0.37    1.15    1.00
  YS02001774YS02001770 CONDUIT    564.77     0  03:01      0.72    0.36    1.00
  YS02001779YS02001774 CONDUIT    563.95     0  03:01      0.72    0.28    1.00
  YS02001649YS02001757 CONDUIT    831.75     0  02:35      1.06    0.50    1.00
  YS02001767YS02001765 CONDUIT    289.98     0  02:38      0.37    0.36    1.00
  YS02006561YS02001783 CONDUIT    981.52     0  03:17      2.15    0.51    1.00
  YS02001783YS02001784 CONDUIT    981.80     0  03:16      1.95    1.35    1.00
  YS02001784YS02001785 CONDUIT    982.48     0  03:19      1.95    2.29    1.00
  YS02001788YS02001790 CONDUIT    982.61     0  03:17      2.44    0.72    1.00
  YS02001790YS02001791 CONDUIT    982.79     0  03:14      2.92    1.07    1.00
  YS02001791YS02001793 CONDUIT    983.24     0  03:17      5.83    0.42    1.00
  YS02001910YS02001907 CONDUIT    457.74     0  02:47      0.58    0.26    1.00
  YS02001786YS02001788 CONDUIT    982.49     0  03:14      2.31    1.89    1.00
  YS02001915YS02001910 CONDUIT    457.29     0  02:47      0.59    0.23    1.00
  YS02001918YS02001915 CONDUIT    246.84     0  03:31      0.44    0.14    1.00
  YS02001923YS02001920 CONDUIT    214.10     0  02:47      0.72    0.10    1.00
  YS02001926YS02001923 CONDUIT    239.65     0  02:47      0.83    0.34    0.89
  YS02001929YS02001926 CONDUIT    199.43     0  02:47      0.89    0.09    0.79
  YS02001920YS02001918 CONDUIT    217.62     0  02:47      0.70    0.21    1.00
  YS02001629YS02163301 CONDUIT    203.69     0  02:26      0.26    0.25    1.00
  YS02001619YS02001622 CONDUIT    291.15     0  03:01      0.61    0.43    1.00
  YS02001622YS02001625 CONDUIT    290.55     0  03:00      0.37    0.16    1.00
  YS02001625YS02001629 CONDUIT    218.64     0  02:17      0.28    0.10    1.00
  YS02163301YS02001633 CONDUIT    204.71     0  02:26      0.26    0.19    1.00
  YS02163601YS02164001 CONDUIT    398.15     0  02:35      0.51    0.35    1.00
  YS02164001YS02001641 CONDUIT    398.36     0  02:35      0.51    0.54    1.00
  YS02001641YS02001644 CONDUIT    398.65     0  02:35      0.51    1.29    1.00
  YS02001647YS02001649 CONDUIT    674.05     0  03:14      0.86    0.36    1.00
  YS02006553YS02006556 CONDUIT    704.23     0  03:31      0.90    0.60    1.00
  YS02006556YS02006558 CONDUIT    704.41     0  03:31      0.90    0.56    1.00
  YSB6556YSB1171       CONDUIT     25.75     0  03:03      0.09    0.03    0.70
  YS02001907YS02006553 CONDUIT    704.09     0  03:31      0.78    0.83    1.00
  YS02006558YS02006561 CONDUIT    981.39     0  03:17      3.47    2.17    1.00
  YS02001633YS02163601 CONDUIT    397.73     0  02:35      0.51    0.42    1.00
  YS02001644YS02001647 CONDUIT    674.80     0  03:14      0.86    0.40    1.00
  YS02001745YS02001748 CONDUIT    560.55     0  02:27      1.47    0.22    0.96
  YS02001748YS02001751 CONDUIT    360.88     0  02:17      1.06    0.18    1.00
  YS02001751YS02001754 CONDUIT    340.87     0  03:01      0.92    0.16    1.00
  YS02001754YS02001757 CONDUIT    340.96     0  03:00      0.43    0.14    1.00
  YS02001882YS02001884 CONDUIT     36.18     0  02:39      0.13    0.04    1.00
  YS02001884YS02001887 CONDUIT     70.79     0  02:38      0.09    0.09    1.00
  YS02001890YS02001895 CONDUIT    494.71     0  03:01      0.63    0.23    1.00
  YS02001895YS02001898 CONDUIT    494.80     0  03:01      0.63    0.86    1.00
  YS02001898YS02001901 CONDUIT    495.38     0  03:01      0.63    0.32    1.00
  YS02001901YS02001904 CONDUIT    495.27     0  03:01      0.63    0.77    1.00
  YS02001904YS02001907 CONDUIT    495.31     0  03:01      0.63    0.17    1.00
  YS02001887YS02001890 CONDUIT    495.35     0  03:01      0.63    0.85    1.00
  YS02001652YS02001649 CONDUIT    377.20     0  03:01      0.63    0.19    1.00
  YS02001655YS02001652 CONDUIT    376.13     0  03:01      0.98    0.18    1.00
  YS02001658YS02001655 CONDUIT    406.49     0  02:18      1.22    0.17    1.00
  YS02001661YS02001658 CONDUIT    598.44     0  02:23      1.55    0.23    1.00
  YS02001664YS02001661 CONDUIT    642.71     0  02:37      1.43    0.20    0.76
  YSB1154YSB6556       CONDUIT     25.83     0  03:01      0.17    0.05    0.59
  YSB1174YSB1171       CONDUIT     20.15     0  03:01      0.07    0.03    0.70
  YSB1171HS02004479    CONDUIT     44.90     0  03:02      0.54    0.03    0.55
  HS02004881HS02006253 CONDUIT     84.16     0  03:01      2.16    0.02    0.53
  YS02001793JiankangQianchi CONDUIT    983.38     0  03:14     16.75    0.08    1.00
  YS02001757CaochengTiaoxuchi CONDUIT   1579.31     0  02:35      2.02    0.69    1.00
  WSF200WS02003060     CONDUIT    828.06     0  03:05      1.86    0.18    0.42
  1                    CONDUIT   1216.77     0  03:08      3.50    0.42    0.45
  CC-Pump-1            PUMP       200.00     0  03:50              1.00
  CC-Pump-2            PUMP       199.96     0  04:00              1.00
  JK-Pump-1            PUMP       300.00     0  02:10              1.00
  JK-Pump-2            PUMP       683.00     0  02:10              1.00
  XR-Pump-1            PUMP        95.00     0  00:00              1.00
  XR-Pump-2            PUMP        95.00     0  00:00              1.00
  XR-Pump-3            PUMP        95.00     0  00:00              1.00
  XR-Pump-4            PUMP        95.00     0  00:00              1.00
  
  
  ***************************
  Flow Classification Summary
  ***************************
  
  -------------------------------------------------------------------------------------
                      Adjusted    ---------- Fraction of Time in Flow Class ---------- 
                       /Actual         Up    Down  Sub   Sup   Up    Down  Norm  Inlet 
  Conduit               Length    Dry  Dry   Dry   Crit  Crit  Crit  Crit  Ltd   Ctrl  
  -------------------------------------------------------------------------------------
  WS02003066WSF200        1.00   0.01  0.05  0.00  0.00  0.93  0.00  0.00  0.60  0.00
  WS02006287WS02006284    1.00   0.03  0.02  0.00  0.57  0.39  0.00  0.00  0.62  0.00
  WS02006284WS02006280    1.00   0.04  0.00  0.00  0.00  0.00  0.00  0.96  0.00  0.00
  WS02006280WS02006229    1.00   0.04  0.00  0.00  0.00  0.02  0.00  0.94  0.01  0.00
  WS02006229WS02006228    1.00   0.00  0.00  0.00  1.00  0.00  0.00  0.00  0.00  0.00
  WS02006256WS02006235    1.00   0.03  0.00  0.00  0.97  0.00  0.00  0.00  0.00  0.00
  WS02006253WS02006251    1.00   0.01  0.02  0.00  0.96  0.00  0.01  0.00  0.00  0.00
  WS02006252WS02006251    1.00   0.21  0.00  0.00  0.04  0.00  0.75  0.00  0.00  0.00
  WS02006251WS02006249    1.00   0.00  0.00  0.00  1.00  0.00  0.00  0.00  0.34  0.00
  WS02006249WS02006248    1.00   0.00  0.00  0.00  0.86  0.00  0.13  0.00  0.00  0.00
  WS02006248WS02006247    1.00   0.01  0.00  0.00  0.98  0.00  0.00  0.01  0.21  0.00
  WS02006247WS02006245    1.00   0.01  0.00  0.00  0.97  0.00  0.00  0.03  0.00  0.00
  WS02006245WS02006243    1.00   0.01  0.00  0.00  0.95  0.00  0.00  0.04  0.01  0.00
  WS02006243WS02006242    1.00   0.01  0.00  0.00  0.97  0.00  0.00  0.02  0.21  0.00
  WS02006242WS02006240    1.00   0.01  0.02  0.00  0.97  0.00  0.00  0.00  0.00  0.00
  WS02006240WS02006239    1.00   0.03  0.00  0.00  0.94  0.00  0.00  0.03  0.01  0.00
  WS02006239WS02006238    1.00   0.03  0.00  0.00  0.97  0.00  0.00  0.00  0.03  0.00
  WS02006238WS02006235    1.00   0.03  0.00  0.00  0.97  0.00  0.00  0.00  0.00  0.00
  WS02006235WS02006234    1.00   0.03  0.00  0.00  0.96  0.00  0.02  0.00  0.00  0.00
  WS02006234WS02006232    1.00   0.03  0.00  0.00  0.97  0.00  0.00  0.00  0.01  0.00
  WS02006232WS02006231    1.00   0.03  0.00  0.00  0.97  0.00  0.00  0.00  0.00  0.00
  WS02006231WS02006230    1.00   0.03  0.00  0.00  0.59  0.00  0.38  0.00  0.00  0.00
  WS02006230WS02006229    1.00   0.00  0.00  0.00  0.99  0.00  0.00  0.01  0.00  0.00
  WS02006228WS02006109    1.00   0.00  0.00  0.00  1.00  0.00  0.00  0.00  0.00  0.00
  WS02006116WS02004401    1.00   0.03  0.00  0.00  0.97  0.00  0.00  0.00  0.00  0.00
  WS02006115WS02006116    1.00   0.03  0.00  0.00  0.96  0.00  0.00  0.01  0.00  0.00
  WS02006113WS02006111    1.00   0.02  0.00  0.00  0.03  0.95  0.00  0.00  0.19  0.00
  WS02006112WS02006115    1.00   0.02  0.01  0.00  0.97  0.00  0.00  0.00  0.00  0.00
  WS02006111WS02006112    1.00   0.02  0.00  0.00  0.98  0.00  0.00  0.00  0.88  0.00
  WS02006110WS02006113    1.00   0.00  0.01  0.00  0.98  0.00  0.00  0.00  0.00  0.00
  WS02006109WS02006110    1.00   0.00  0.00  0.00  0.99  0.00  0.00  0.00  0.00  0.00
  WS02004411WS02004412    1.00   0.05  0.00  0.00  0.95  0.00  0.00  0.00  0.00  0.00
  WS02004401WS02004402    1.00   0.03  0.00  0.00  0.97  0.00  0.00  0.00  0.00  0.00
  WS02004413WS02003067    1.00   0.05  0.01  0.00  0.00  0.00  0.94  0.00  0.00  0.00
  WS02004412WS02004413    1.00   0.05  0.00  0.00  0.95  0.00  0.00  0.00  0.01  0.00
  WS02004410WS02004411    1.00   0.04  0.00  0.00  0.96  0.00  0.00  0.00  0.00  0.00
  WS02004409WS02004410    1.00   0.04  0.00  0.00  0.96  0.00  0.00  0.00  0.00  0.00
  WS02004407WS02004409    1.00   0.04  0.00  0.00  0.95  0.00  0.00  0.00  0.84  0.00
  WS02004406WS02004407    1.00   0.00  0.04  0.00  0.96  0.00  0.00  0.00  0.00  0.00
  WS02004405WS02004406    1.00   0.00  0.00  0.00  1.00  0.00  0.00  0.00  0.04  0.00
  WS02004404WS02004405    1.00   0.00  0.00  0.00  1.00  0.00  0.00  0.00  0.00  0.00
  WS02004403WS02004404    1.00   0.00  0.03  0.00  0.97  0.00  0.00  0.00  0.01  0.00
  WS02004402WS02004403    1.00   0.03  0.00  0.00  0.97  0.00  0.00  0.00  0.00  0.00
  WS02004139WS02001211    1.00   0.00  0.00  0.00  1.00  0.00  0.00  0.00  0.00  0.00
  WS02004138WS02004139    1.00   0.00  0.00  0.00  1.00  0.00  0.00  0.00  1.00  0.00
  WS02003067WS02003066    1.00   0.06  0.01  0.00  0.93  0.00  0.00  0.00  0.00  0.00
  WS02001213WS02003059    1.00   0.00  0.00  0.00  1.00  0.00  0.00  0.00  0.00  0.00
  WS02001212WS02001213    1.00   0.00  0.00  0.00  0.90  0.00  0.10  0.00  0.00  0.00
  WS02001211WS02001212    1.00   0.00  0.00  0.00  1.00  0.00  0.00  0.00  0.00  0.00
  WS02003072WS02003073    1.00   0.00  0.00  0.00  0.00  0.00  0.00  1.00  0.00  0.00
  WS02003069WS02003072    1.00   0.00  0.00  0.00  1.00  0.00  0.00  0.00  0.09  0.00
  WS02003060WS02003069    1.00   0.00  0.00  0.00  0.99  0.01  0.00  0.00  0.06  0.00
  WS02003059WS02003060    1.00   0.00  0.00  0.00  1.00  0.00  0.00  0.00  0.00  0.00
  HS02004901HS02004770    1.00   0.04  0.00  0.00  0.96  0.00  0.00  0.00  0.00  0.00
  HS02004876HS02004881    1.00   0.01  0.00  0.00  0.91  0.09  0.00  0.00  0.00  0.00
  HS02004870HS02004876    1.00   0.00  0.00  0.00  1.00  0.00  0.00  0.00  0.95  0.00
  HS02004842HS02004848    1.00   0.00  0.04  0.00  0.96  0.00  0.00  0.00  0.55  0.00
  HS02004837HS02004842    1.00   0.00  0.00  0.00  1.00  0.00  0.00  0.00  0.11  0.00
  HS02004830HS02004837    1.00   0.00  0.00  0.00  1.00  0.00  0.00  0.00  0.99  0.00
  HS02004824HS02004830    1.00   0.00  0.00  0.00  1.00  0.00  0.00  0.00  0.00  0.00
  HS02004817HS02004824    1.00   0.00  0.00  0.00  1.00  0.00  0.00  0.00  1.00  0.00
  HS02004770HS02004777    1.00   0.00  0.04  0.00  0.96  0.00  0.00  0.00  0.02  0.00
  HS02004799HS02004480    1.00   0.00  0.01  0.00  0.95  0.00  0.04  0.00  0.00  0.00
  HS02004792HS02004799    1.00   0.00  0.00  0.00  1.00  0.00  0.00  0.00  0.98  0.00
  HS02004788HS02004792    1.00   0.00  0.00  0.00  1.00  0.00  0.00  0.00  0.98  0.00
  HS02004785HS02004788    1.00   0.00  0.00  0.00  1.00  0.00  0.00  0.00  0.00  0.00
  HS02004777HS02004785    1.00   0.00  0.00  0.00  1.00  0.00  0.00  0.00  0.12  0.00
  HS02004480HS02004478    1.00   0.04  0.00  0.00  0.66  0.00  0.00  0.30  0.00  0.00
  HS02004479HS02004480    1.00   0.01  0.00  0.00  0.99  0.00  0.00  0.00  0.11  0.00
  HS02004862HS02004870    1.00   0.00  0.00  0.00  1.00  0.00  0.00  0.00  0.03  0.00
  HS02004848HS02004852    1.00   0.04  0.00  0.00  0.96  0.00  0.00  0.00  0.62  0.00
  HS02004856HS02004862    1.00   0.00  0.05  0.00  0.95  0.00  0.00  0.00  0.83  0.00
  HS02004852HS02004856    1.00   0.04  0.00  0.00  0.96  0.00  0.00  0.00  0.85  0.00
  HS02004802HS02004478    1.00   0.04  0.00  0.00  0.96  0.00  0.00  0.00  0.02  0.00
  HS02004478WS02006287    1.00   0.05  0.00  0.00  0.73  0.22  0.00  0.00  0.64  0.00
  HS02004817HS02004807    1.00   0.00  0.04  0.00  0.96  0.00  0.00  0.00  0.01  0.00
  HS02004807HS02004802    1.00   0.04  0.00  0.00  0.96  0.00  0.00  0.01  0.00  0.00
  YS02001759YS02001757    1.00   0.00  0.00  0.00  1.00  0.00  0.00  0.00  0.16  0.00
  YS02001762YS02001759    1.00   0.00  0.00  0.00  1.00  0.00  0.00  0.00  0.03  0.00
  YS02001765YS02001762    1.00   0.00  0.00  0.00  1.00  0.00  0.00  0.00  0.13  0.00
  YS02001770YS02001767    1.00   0.00  0.00  0.00  1.00  0.00  0.00  0.00  0.00  0.00
  YS02001774YS02001770    1.00   0.00  0.04  0.00  0.96  0.00  0.00  0.00  0.02  0.00
  YS02001779YS02001774    1.00   0.00  0.00  0.00  1.00  0.00  0.00  0.00  0.18  0.00
  YS02001649YS02001757    1.00   0.00  0.00  0.00  1.00  0.00  0.00  0.00  0.16  0.00
  YS02001767YS02001765    1.00   0.00  0.00  0.00  1.00  0.00  0.00  0.00  0.00  0.00
  YS02006561YS02001783    1.00   0.05  0.00  0.00  0.32  0.62  0.00  0.00  0.48  0.00
  YS02001783YS02001784    1.00   0.00  0.06  0.00  0.94  0.00  0.00  0.00  0.00  0.00
  YS02001784YS02001785    1.00   0.00  0.00  0.00  1.00  0.00  0.00  0.00  0.17  0.00
  YS02001788YS02001790    1.00   0.00  0.00  0.00  0.33  0.66  0.00  0.00  0.38  0.00
  YS02001790YS02001791    1.00   0.00  0.00  0.00  0.29  0.71  0.00  0.00  0.47  0.00
  YS02001791YS02001793    1.00   0.00  0.00  0.00  0.31  0.69  0.00  0.00  0.03  0.00
  YS02001910YS02001907    1.00   0.00  0.00  0.00  0.99  0.00  0.00  0.01  0.12  0.00
  YS02001786YS02001788    1.00   0.00  0.00  0.00  0.33  0.67  0.00  0.00  0.00  0.00
  YS02001915YS02001910    1.00   0.00  0.00  0.00  0.99  0.01  0.00  0.00  0.15  0.00
  YS02001918YS02001915    1.00   0.00  0.00  0.00  0.99  0.00  0.00  0.00  0.55  0.00
  YS02001923YS02001920    1.00   0.00  0.00  0.00  1.00  0.00  0.00  0.00  0.84  0.00
  YS02001926YS02001923    1.00   0.00  0.02  0.00  0.14  0.00  0.84  0.00  0.00  0.00
  YS02001929YS02001926    1.00   0.00  0.04  0.00  0.96  0.00  0.00  0.00  0.77  0.00
  YS02001920YS02001918    1.00   0.00  0.00  0.00  1.00  0.00  0.00  0.00  0.00  0.00
  YS02001629YS02163301    1.00   0.05  0.00  0.00  0.95  0.00  0.00  0.00  0.00  0.00
  YS02001619YS02001622    1.00   0.04  0.00  0.00  0.96  0.00  0.00  0.00  0.00  0.00
  YS02001622YS02001625    1.00   0.04  0.00  0.00  0.96  0.00  0.00  0.00  0.04  0.00
  YS02001625YS02001629    1.00   0.04  0.02  0.00  0.93  0.00  0.02  0.00  0.00  0.00
  YS02163301YS02001633    1.00   0.00  0.04  0.00  0.96  0.00  0.00  0.00  0.00  0.00
  YS02163601YS02164001    1.00   0.00  0.02  0.00  0.98  0.00  0.00  0.00  0.00  0.00
  YS02164001YS02001641    1.00   0.00  0.02  0.00  0.98  0.00  0.00  0.00  0.06  0.00
  YS02001641YS02001644    1.00   0.00  0.00  0.00  1.00  0.00  0.00  0.00  0.00  0.00
  YS02001647YS02001649    1.00   0.00  0.05  0.00  0.95  0.00  0.00  0.00  0.01  0.00
  YS02006553YS02006556    1.00   0.00  0.00  0.00  1.00  0.00  0.00  0.00  0.03  0.00
  YS02006556YS02006558    1.00   0.00  0.00  0.00  1.00  0.00  0.00  0.00  0.00  0.00
  YSB6556YSB1171          1.00   0.01  0.03  0.00  0.96  0.00  0.00  0.00  0.00  0.00
  YS02001907YS02006553    1.00   0.00  0.01  0.00  0.99  0.00  0.00  0.00  0.00  0.00
  YS02006558YS02006561    1.00   0.05  0.00  0.00  0.14  0.81  0.00  0.00  0.48  0.00
  YS02001633YS02163601    1.00   0.00  0.00  0.00  1.00  0.00  0.00  0.00  0.15  0.00
  YS02001644YS02001647    1.00   0.00  0.05  0.00  0.95  0.00  0.00  0.00  0.00  0.00
  YS02001745YS02001748    1.00   0.00  0.00  0.00  0.90  0.01  0.00  0.09  0.04  0.00
  YS02001748YS02001751    1.00   0.00  0.00  0.00  0.97  0.03  0.00  0.00  0.15  0.00
  YS02001751YS02001754    1.00   0.00  0.00  0.00  0.94  0.00  0.00  0.06  0.02  0.00
  YS02001754YS02001757    1.00   0.00  0.00  0.00  1.00  0.00  0.00  0.00  0.18  0.00
  YS02001882YS02001884    1.00   0.04  0.00  0.00  0.95  0.00  0.00  0.00  0.00  0.00
  YS02001884YS02001887    1.00   0.02  0.02  0.00  0.97  0.00  0.00  0.00  0.00  0.00
  YS02001890YS02001895    1.00   0.00  0.05  0.00  0.95  0.00  0.00  0.00  0.00  0.00
  YS02001895YS02001898    1.00   0.05  0.00  0.00  0.94  0.00  0.01  0.00  0.00  0.00
  YS02001898YS02001901    1.00   0.05  0.00  0.00  0.95  0.00  0.00  0.00  0.01  0.00
  YS02001901YS02001904    1.00   0.05  0.00  0.00  0.95  0.00  0.00  0.00  0.00  0.00
  YS02001904YS02001907    1.00   0.00  0.05  0.00  0.95  0.00  0.00  0.00  0.00  0.00
  YS02001887YS02001890    1.00   0.00  0.00  0.00  0.99  0.00  0.01  0.00  0.00  0.00
  YS02001652YS02001649    1.00   0.00  0.00  0.00  1.00  0.00  0.00  0.00  0.16  0.00
  YS02001655YS02001652    1.00   0.00  0.00  0.00  0.94  0.00  0.00  0.06  0.02  0.00
  YS02001658YS02001655    1.00   0.00  0.04  0.00  0.93  0.03  0.00  0.00  0.08  0.00
  YS02001661YS02001658    1.00   0.04  0.00  0.00  0.90  0.06  0.00  0.00  0.09  0.00
  YS02001664YS02001661    1.00   0.04  0.00  0.00  0.91  0.05  0.00  0.00  0.19  0.00
  YSB1154YSB6556          1.00   0.04  0.00  0.00  0.96  0.00  0.00  0.00  0.01  0.00
  YSB1174YSB1171          1.00   0.01  0.01  0.00  0.97  0.00  0.00  0.00  0.00  0.00
  YSB1171HS02004479       1.00   0.01  0.00  0.00  0.99  0.00  0.00  0.00  0.10  0.00
  HS02004881HS02006253    1.00   0.02  0.00  0.00  0.42  0.04  0.00  0.52  0.27  0.00
  YS02001793JiankangQianchi    1.00   0.00  0.00  0.00  0.68  0.32  0.00  0.00  0.42  0.00
  YS02001757CaochengTiaoxuchi    1.00   0.00  0.07  0.00  0.93  0.00  0.00  0.00  0.00  0.00
  WSF200WS02003060        1.00   0.00  0.01  0.00  0.98  0.01  0.00  0.00  0.52  0.00
  1                       1.00   0.00  0.00  0.00  0.00  1.00  0.00  0.00  0.51  0.00
  
  
  *************************
  Conduit Surcharge Summary
  *************************
  
  ----------------------------------------------------------------------------
                                                           Hours        Hours 
                         --------- Hours Full --------   Above Full   Capacity
  Conduit                Both Ends  Upstream  Dnstream   Normal Flow   Limited
  ----------------------------------------------------------------------------
  WS02006229WS02006228        2.40      2.56      2.40      3.39         2.40
  WS02006256WS02006235        5.22      5.23      6.82      4.21         0.01
  WS02006253WS02006251        0.40      0.40      0.41      0.01         0.01
  WS02006252WS02006251        0.24      0.24      0.48      0.32         0.01
  WS02006251WS02006249        0.40      0.40      0.44      0.06         0.05
  WS02006249WS02006248        0.42      0.42      0.44      1.14         0.01
  WS02006248WS02006247        0.44      0.44      0.51      0.01         0.01
  WS02006247WS02006245        0.51      0.52      0.51      1.95         0.47
  WS02006245WS02006243        0.52      0.52      0.58      0.01         0.02
  WS02006243WS02006242        0.61      0.61      0.81      0.01         0.01
  WS02006242WS02006240        0.78      0.78      0.93      0.25         0.01
  WS02006240WS02006239        0.80      0.80      0.94      0.08         0.07
  WS02006239WS02006238        1.22      1.22      1.62      0.10         0.09
  WS02006238WS02006235        1.60      1.60      1.96      0.01         0.01
  WS02006235WS02006234        1.13      1.13      1.49      5.08         0.01
  WS02006234WS02006232        1.34      1.34      2.38      0.17         0.16
  WS02006232WS02006231        0.67      0.67      2.38      0.21         0.01
  WS02006231WS02006230        0.50      0.50      0.77      5.41         0.01
  WS02006230WS02006229        3.06      3.26      3.06      5.75         3.06
  WS02006228WS02006109        2.48      2.91      2.48      4.50         2.48
  WS02006116WS02004401        0.20      0.20      0.20      0.17         0.17
[...]
  YS02001765YS02001762        5.84      5.84      5.87      0.01         0.01
  YS02001770YS02001767        5.81      5.81      5.81      0.18         0.70
  YS02001774YS02001770        5.80      5.80      5.86      0.01         0.01
  YS02001779YS02001774        5.68      5.68      5.86      0.01         0.01
  YS02001649YS02001757        5.87      5.87      5.98      0.01         0.01
  YS02001767YS02001765        5.81      5.81      5.84      0.01         0.01
  YS02006561YS02001783        0.75      0.75      1.00      0.01         0.01
  YS02001783YS02001784        0.98      1.00      0.98      1.40         0.97
  YS02001784YS02001785        0.92      0.98      0.92      2.40         0.92
  YS02001788YS02001790        0.87      0.87      1.80      0.01         0.01
  YS02001790YS02001791        1.79      1.80      1.91      0.86         0.84
  YS02001791YS02001793        1.91      1.91      2.31      0.01         0.01
  YS02001910YS02001907        1.05      1.05      1.78      0.01         0.01
  YS02001786YS02001788        0.87      0.92      0.87      1.99         0.87
  YS02001915YS02001910        0.87      0.87      1.05      0.01         0.01
  YS02001918YS02001915        0.70      0.70      0.87      0.01         0.01
  YS02001923YS02001920        0.53      0.53      0.73      0.01         0.01
  YS02001920YS02001918        0.70      0.70      0.73      0.01         0.01
  YS02001629YS02163301        5.80      5.80      5.81      0.01         0.01
  YS02001619YS02001622        5.47      5.47      5.51      0.01         0.01
  YS02001622YS02001625        5.51      5.51      5.76      0.01         0.01
  YS02001625YS02001629        5.48      5.48      5.76      0.01         0.01
  YS02163301YS02001633        5.81      5.81      5.84      0.01         0.01
  YS02163601YS02164001        5.84      5.84      5.87      0.01         0.01
  YS02164001YS02001641        5.84      5.84      5.85      0.01         0.03
  YS02001641YS02001644        5.85      5.85      5.85      1.52         1.61
  YS02001647YS02001649        5.75      5.75      5.87      0.01         0.01
  YS02006553YS02006556        1.30      1.30      1.85      0.01         0.01
  YS02006556YS02006558        1.52      1.52      1.93      0.01         0.01
  YS02001907YS02006553        2.41      2.41      2.62      0.01         0.01
  YS02006558YS02006561        0.89      1.26      0.89      2.24         0.89
  YS02001633YS02163601        5.83      5.83      5.87      0.01         0.01
  YS02001644YS02001647        5.75      5.75      5.85      0.01         0.01
  YS02001745YS02001748        0.01      0.01      5.30      0.01         0.01
  YS02001748YS02001751        5.35      5.35      5.49      0.01         0.01
  YS02001751YS02001754        5.49      5.49      5.70      0.01         0.01
  YS02001754YS02001757        5.74      5.74      5.98      0.01         0.01
  YS02001882YS02001884        0.88      0.88      0.91      0.01         0.01
  YS02001884YS02001887        0.95      0.95      0.97      0.01         0.01
  YS02001890YS02001895        0.86      0.86      1.08      0.01         0.01
  YS02001895YS02001898        0.85      0.85      0.86      0.01         0.01
  YS02001898YS02001901        0.87      0.87      0.94      0.01         0.01
  YS02001901YS02001904        0.92      0.92      0.94      0.01         0.01
  YS02001904YS02001907        0.92      0.92      1.87      0.01         0.01
  YS02001887YS02001890        1.00      1.00      1.03      0.01         0.01
  YS02001652YS02001649        5.76      5.76      5.87      0.01         0.01
  YS02001655YS02001652        5.51      5.51      5.73      0.01         0.01
  YS02001658YS02001655        5.33      5.33      5.51      0.01         0.01
  YS02001661YS02001658        0.17      0.17      5.33      0.01         0.01
  YS02001664YS02001661        0.01      0.01      1.18      0.01         0.01
  HS02004881HS02006253        0.01      0.01      0.18      0.01         0.01
  YS02001793JiankangQianchi        2.21      2.21      4.92      0.01         0.01
  YS02001757CaochengTiaoxuchi        5.21      5.21      5.98      0.01         0.01
  
  
  ***************
  Pumping Summary
  ***************
  
  ---------------------------------------------------------------------------------------------------------
                                                  Min       Avg       Max     Total     Power    % Time Off
                        Percent   Number of      Flow      Flow      Flow    Volume     Usage    Pump Curve
  Pump                 Utilized   Start-Ups       LPS       LPS       LPS  10^6 ltr     Kw-hr    Low   High
  ---------------------------------------------------------------------------------------------------------
  CC-Pump-1               44.67           5      0.00    132.76    200.00     1.500      0.96    0.0    0.0
  CC-Pump-2                8.51           2      0.00     91.56    199.96     0.240      0.27    0.0    0.0
  JK-Pump-1               59.57           4      0.00    228.23    300.00     3.567     55.74    0.0    0.0
  JK-Pump-2               53.18           5      0.00    424.86    683.00     5.801     83.83    0.0   94.9
  XR-Pump-1              100.00           1      0.00     94.43     95.00     2.622     26.49    0.0    0.0
  XR-Pump-2              100.00           1      0.00     92.27     95.00     2.508     24.10    0.0    0.0
  XR-Pump-3               95.74           3      0.00     92.07     95.00     2.394     21.62    0.0    0.0
  XR-Pump-4               95.74           3      0.00     92.07     95.00     2.394     21.62    0.0    0.0
  
  
  ***************************
  Link Pollutant Load Summary
  ***************************
  
  ------------------------------------------------------------------------------------------
                                 COD            SS            TN            TP         NH4-N
  Link                            kg            kg            kg            kg            kg
  ------------------------------------------------------------------------------------------
  WS02003066WSF200           658.139      1216.135        18.131         1.633         9.661
  WS02006287WS02006284       268.057       498.205         9.346         0.943         5.214
  WS02006284WS02006280       268.543       498.988         9.393         0.949         5.243
  WS02006280WS02006229       268.510       498.926         9.391         0.948         5.242
  WS02006229WS02006228       656.554      1213.529        17.733         1.576         9.403
  WS02006256WS02006235       208.232       382.559         4.508         0.346         2.268
  WS02006253WS02006251        49.531        95.811         1.078         0.079         0.531
  WS02006252WS02006251       149.463       270.939         3.166         0.233         1.565
  WS02006251WS02006249       193.194       356.309         4.135         0.305         2.044
  WS02006249WS02006248       190.342       351.084         4.069         0.299         2.011
  WS02006248WS02006247       190.211       350.835         4.075         0.300         2.015
  WS02006247WS02006245       189.983       350.373         4.077         0.301         2.017
  WS02006245WS02006243       189.578       349.602         4.078         0.302         2.019
  WS02006243WS02006242       189.610       349.515         4.092         0.304         2.028
  WS02006242WS02006240       189.739       349.605         4.085         0.302         2.023
  WS02006240WS02006239       190.718       351.195         4.116         0.305         2.040
  WS02006239WS02006238       192.398       353.876         4.177         0.311         2.074
  WS02006238WS02006235       193.259       355.186         4.208         0.314         2.091
  WS02006235WS02006234       392.553       722.695         8.452         0.637         4.217
  WS02006234WS02006232       391.782       721.261         8.439         0.636         4.212
  WS02006232WS02006231       390.985       719.824         8.421         0.635         4.203
  WS02006231WS02006230       390.547       719.052         8.412         0.634         4.198
  WS02006230WS02006229       389.191       716.623         8.381         0.632         4.182
  WS02006228WS02006109       655.274      1211.236        17.694         1.573         9.381
  WS02006116WS02004401       665.147      1228.402        18.364         1.655         9.790
  WS02006115WS02006116       666.322      1230.473        18.404         1.659         9.812
  WS02006113WS02006111       660.409      1218.937        18.371         1.660         9.811
  WS02006112WS02006115       667.488      1232.496        18.456         1.664         9.842
  WS02006111WS02006112       659.762      1217.777        18.353         1.658         9.802
  WS02006110WS02006113       660.989      1219.950        18.397         1.663         9.826
  WS02006109WS02006110       662.507      1222.572        18.472         1.671         9.871
  WS02004411WS02004412       659.984      1219.295        18.216         1.642         9.711
  WS02004401WS02004402       664.047      1226.489        18.317         1.650         9.763
  WS02004413WS02003067       658.386      1216.563        18.139         1.633         9.665
  WS02004412WS02004413       659.424      1218.341        18.193         1.639         9.697
  WS02004410WS02004411       660.408      1220.024        18.233         1.644         9.720
  WS02004409WS02004410       660.882      1220.841        18.252         1.646         9.731
  WS02004407WS02004409       661.190      1221.377        18.262         1.647         9.737
  WS02004406WS02004407       661.202      1221.409        18.259         1.646         9.735
  WS02004405WS02004406       662.591      1223.749        18.346         1.656         9.787
  WS02004404WS02004405       663.013      1224.538        18.335         1.654         9.778
  WS02004403WS02004404       662.287      1223.423        18.246         1.643         9.722
  WS02004402WS02004403       663.084      1224.803        18.281         1.646         9.742
  WS02004139WS02001211      1399.187      2305.211       116.346        14.248        71.849
  WS02004138WS02004139      1405.537      2315.700       116.858        14.310        72.164
  WS02003067WS02003066       658.275      1216.374        18.136         1.633         9.664
  WS02001213WS02003059      1432.547      2357.885       119.757        14.677        73.991
  WS02001212WS02001213      1441.439      2372.493       120.499        14.768        74.450
  WS02001211WS02001212      1443.498      2375.836       120.682        14.791        74.563
  WS02003072WS02003073      2191.795      3735.154       147.809        17.554        89.862
  WS02003069WS02003072      2196.719      3743.163       148.233        17.606        90.125
  WS02003060WS02003069      2199.209      3747.325       148.413        17.627        90.235
  WS02003059WS02003060      1429.749      2353.206       119.548        14.652        73.863
  HS02004901HS02004770        10.271        19.479         0.196         0.015         0.091
  HS02004876HS02004881        37.317        72.577         0.843         0.062         0.416
  HS02004870HS02004876        28.160        54.626         0.678         0.051         0.338
  HS02004842HS02004848         5.467        10.276         0.115         0.008         0.053
  HS02004837HS02004842        10.074        17.585         0.584         0.067         0.348
  HS02004830HS02004837        65.636       112.700         4.556         0.546         2.785
  HS02004824HS02004830        66.387       113.903         4.628         0.555         2.829
  HS02004817HS02004824        88.204       156.971         5.083         0.584         3.051
  HS02004770HS02004777        39.296        75.467         0.819         0.055         0.377
  HS02004799HS02004480       131.410       245.370         3.680         0.335         1.933
  HS02004792HS02004799       119.087       220.664         3.497         0.327         1.853
  HS02004788HS02004792        68.398       126.860         2.388         0.235         1.309
  HS02004785HS02004788        40.734        77.762         0.969         0.074         0.471
  HS02004777HS02004785        40.059        76.666         0.908         0.067         0.433
  HS02004480HS02004478       165.955       312.599         4.244         0.375         2.196
  HS02004479HS02004480        38.150        72.982         0.884         0.079         0.462
  HS02004862HS02004870        21.015        40.116         0.536         0.043         0.270
  HS02004848HS02004852         8.057        15.279         0.167         0.011         0.077
  HS02004856HS02004862        14.071        27.340         0.284         0.019         0.133
  HS02004852HS02004856         8.064        15.290         0.167         0.011         0.077
  HS02004802HS02004478       102.884       186.885         5.162         0.575         3.055
  HS02004478WS02006287       268.255       498.539         9.363         0.945         5.224
  HS02004817HS02004807        86.886       154.858         4.956         0.568         2.972
  HS02004807HS02004802       103.110       187.238         5.194         0.580         3.075
  YS02001759YS02001757       305.559       554.056         6.161         0.427         3.013
  YS02001762YS02001759       167.616       306.247         3.541         0.249         1.751
  YS02001765YS02001762       168.132       307.765         3.571         0.252         1.768
  YS02001770YS02001767       168.856       310.842         3.402         0.225         1.652
  YS02001774YS02001770       208.579       399.198         4.041         0.268         1.953
  YS02001779YS02001774       208.053       398.121         4.132         0.282         2.016
  YS02001649YS02001757       347.398       623.056         7.065         0.485         3.410
  YS02001767YS02001765       169.198       310.267         3.605         0.255         1.787
  YS02006561YS02001783       935.345      1715.180        19.826         1.488         9.896
  YS02001783YS02001784       935.217      1714.976        19.821         1.488         9.893
  YS02001784YS02001785       942.546      1726.716        20.534         1.577        10.339
  YS02001788YS02001790       943.169      1727.729        20.607         1.587        10.385
  YS02001790YS02001791       944.179      1729.362        20.707         1.599        10.448
  YS02001791YS02001793       944.055      1729.152        20.702         1.599        10.445
  YS02001910YS02001907       330.271       599.509         8.245         0.644         4.261
  YS02001786YS02001788       942.759      1727.073        20.562         1.581        10.357
  YS02001915YS02001910       330.367       599.660         8.202         0.637         4.232
  YS02001918YS02001915       160.524       279.114         4.683         0.436         2.550
  YS02001923YS02001920       137.886       241.891         2.688         0.190         1.310
  YS02001926YS02001923       136.844       240.157         2.614         0.181         1.265
  YS02001929YS02001926       136.185       239.058         2.556         0.174         1.228
  YS02001920YS02001918       158.403       274.888         4.614         0.430         2.512
  YS02001629YS02163301       103.528       183.445         2.171         0.140         1.012
  YS02001619YS02001622       146.401       262.943         3.031         0.197         1.414
  YS02001622YS02001625       145.255       261.134         3.003         0.195         1.401
  YS02001625YS02001629       104.611       185.235         2.195         0.142         1.023
  YS02163301YS02001633       103.270       183.011         2.164         0.140         1.010
  YS02163601YS02164001       362.093       646.299         7.117         0.503         3.404
  YS02164001YS02001641       361.634       645.530         7.098         0.501         3.393
  YS02001641YS02001644       361.887       645.885         7.097         0.500         3.392
  YS02001647YS02001649       407.782       737.954         8.227         0.568         3.950
  YS02006553YS02006556       656.846      1198.801        14.228         1.095         7.177
  YS02006556YS02006558       656.772      1198.652        14.195         1.090         7.155
  YSB6556YSB1171              21.956        42.203         0.452         0.038         0.229
  YS02001907YS02006553       656.963      1199.039        14.241         1.097         7.186
  YS02006558YS02006561       935.350      1715.183        19.825         1.488         9.895
  YS02001633YS02163601       362.770       647.344         7.096         0.498         3.387
  YS02001644YS02001647       413.093       747.789         8.308         0.573         3.987
  YS02001745YS02001748       209.973       386.298         4.723         0.329         2.357
  YS02001748YS02001751       208.307       383.052         4.794         0.342         2.411
  YS02001751YS02001754       207.368       381.516         4.777         0.342         2.404
  YS02001754YS02001757       208.151       382.701         4.942         0.364         2.511
  YS02001882YS02001884         2.917         5.044         0.059         0.005         0.029
  YS02001884YS02001887         7.045        12.490         0.137         0.011         0.068
  YS02001890YS02001895       389.445       720.610         7.189         0.539         3.508
  YS02001895YS02001898       389.279       720.385         7.183         0.539         3.505
  YS02001898YS02001901       389.087       720.063         7.178         0.538         3.502
  YS02001901YS02001904       388.938       719.851         7.185         0.540         3.507
  YS02001904YS02001907       389.153       720.176         7.238         0.547         3.542
  YS02001887YS02001890       390.255       721.824         7.243         0.546         3.541
  YS02001652YS02001649       154.633       282.842         3.155         0.227         1.479
  YS02001655YS02001652       155.458       284.151         3.176         0.228         1.489
  YS02001658YS02001655       155.206       283.715         3.096         0.217         1.435
  YS02001661YS02001658       159.990       292.200         3.194         0.224         1.481
  YS02001664YS02001661       177.509       321.559         3.579         0.250         1.657
  YSB1154YSB6556              21.536        41.534         0.403         0.032         0.199
  YSB1174YSB1171              14.654        28.291         0.298         0.024         0.149
  YSB1171HS02004479           38.108        72.916         0.888         0.079         0.465
  HS02004881HS02006253        42.159        82.252         0.931         0.068         0.459
  YS02001793JiankangQianchi       943.776      1728.685        20.651         1.592        10.412
  YS02001757CaochengTiaoxuchi       480.043       866.675        10.149         0.734         5.002
  WSF200WS02003060           658.372      1216.532        18.150         1.635         9.673
  1                         2198.178      3745.029       148.519        17.644        90.310
  CC-Pump-1                  128.300       232.558         2.704         0.198         1.333
  CC-Pump-2                   20.850        37.874         0.438         0.032         0.216
  JK-Pump-1                  250.765       464.201         5.278         0.399         2.636
  JK-Pump-2                  449.136       830.669         9.577         0.729         4.800
  XR-Pump-1                  379.827       624.489        31.914         3.914        19.726
  XR-Pump-2                  358.535       590.401        29.888         3.661        18.461
  XR-Pump-3                  335.487       553.516        27.689         3.387        17.089
  XR-Pump-4                  335.487       553.516        27.689         3.387        17.089
  

  Analysis begun on:  Thu Jul 15 15:20:36 2021
  Analysis ended on:  Thu Jul 15 15:20:38 2021
  Total elapsed time: 00:00:02