
  EPA STORM WATER MANAGEMENT MODEL - VERSION 5.1 (Build 5.3.0.dev0)
  --------------------------------------------------------------

  WARNING 04: minimum elevation drop used for Conduit WS02004404WS02004405
  WARNING 03: negative offset ignored for Link YS02001904YS02001907
  
  *********************************************************
  NOTE: The summary statistics displayed in this report are
  based on results found at every computational time step,  
  not just on results from each reporting time step.
  *********************************************************
  
  ****************
  Analysis Options
  ****************
  Flow Units ............... LPS
  Process Models:
    Rainfall/Runoff ........ YES
    RDII ................... NO
    Snowmelt ............... NO
    Groundwater ............ NO
    Flow Routing ........... YES
    Ponding Allowed ........ NO
    Water Quality .......... YES
  Infiltration Method ...... HORTON
  Flow Routing Method ...... DYNWAVE
  Surcharge Method ......... EXTRAN
  Starting Date ............ 08/28/2015 08:00:00
  Ending Date .............. 08/28/2015 15:50:00
  Antecedent Dry Days ...... 8.0
  Report Time Step ......... 00:01:00
  Wet Time Step ............ 00:01:00
  Dry Time Step ............ 00:01:00
  Routing Time Step ........ 5.00 sec
  Variable Time Step ....... YES
  Maximum Trials ........... 8
  Number of Threads ........ 4
  Head Tolerance ........... 0.001500 m
  
  
  **************************        Volume         Depth
  Runoff Quantity Continuity     hectare-m            mm
  **************************     ---------       -------
  Total Precipitation ......         5.556        12.164
  Evaporation Loss .........         0.000         0.000
  Infiltration Loss ........         1.002         2.194
  Surface Runoff ...........         3.688         8.075
  Final Storage ............         0.866         1.897
  Continuity Error (%) .....        -0.019
  
  
  **************************           COD            SS            TN            TP         NH4-N
  Runoff Quality Continuity             kg            kg            kg            kg            kg
  **************************    ----------    ----------    ----------    ----------    ----------
  Initial Buildup ..........     41378.656     70582.865      1804.177       168.684      1032.807
  Surface Buildup ..........        19.275        34.271         2.335         0.213         1.362
  Wet Deposition ...........         0.000         0.000         0.000         0.000         0.000
  Sweeping Removal .........         0.000         0.000         0.000         0.000         0.000
  Infiltration Loss ........        84.023       157.502         1.599         0.111         0.761
  BMP Removal ..............         0.000         0.000         0.000         0.000         0.000
  Surface Runoff ...........      3122.074      5752.154        60.620         4.098        28.771
  Remaining Buildup ........     38190.779     64705.500      1744.271       164.686      1004.628
  Continuity Error (%) .....         0.003         0.003         0.001         0.001         0.001
  
  
  **************************        Volume        Volume
  Flow Routing Continuity        hectare-m      10^6 ltr
  **************************     ---------     ---------
  Dry Weather Inflow .......         0.616         6.165
  Wet Weather Inflow .......         3.687        36.870
  Groundwater Inflow .......         0.000         0.000
  RDII Inflow ..............         0.000         0.000
  External Inflow ..........         0.102         1.024
  External Outflow .........         1.860        18.603
  Flooding Loss ............         2.116        21.161
  Evaporation Loss .........         0.000         0.000
  Exfiltration Loss ........         0.000         0.000
  Initial Stored Volume ....         0.076         0.761
  Final Stored Volume ......         0.627         6.268
  Continuity Error (%) .....        -2.706
  
  
  **************************           COD            SS            TN            TP         NH4-N
  Quality Routing Continuity            kg            kg            kg            kg            kg
  **************************    ----------    ----------    ----------    ----------    ----------
  Dry Weather Inflow .......      1541.201      2465.922       147.955        18.494        92.472
  Wet Weather Inflow .......      3121.264      5750.753        60.603         4.097        28.763
  Groundwater Inflow .......         0.000         0.000         0.000         0.000         0.000
  RDII Inflow ..............         0.000         0.000         0.000         0.000         0.000
  External Inflow ..........       183.418       293.469        17.608         2.201        11.005
  External Outflow .........      2232.138      3803.511       149.705        17.759        90.968
  Flooding Loss ............      1914.710      3503.467        49.123         4.240        25.754
  Exfiltration Loss ........         0.000         0.000         0.000         0.000         0.000
  Mass Reacted .............         0.000         0.000         0.000         0.000         0.000
  Initial Stored Mass ......         0.000         0.000         0.000         0.000         0.000
  Final Stored Mass ........       535.929       920.333        23.460         2.492        13.556
  Continuity Error (%) .....         3.366         3.323         1.715         1.218         1.483
  
  
  *************************
  Highest Continuity Errors
  *************************
  Node HS02004842 (14.53%)
  Node JK-storage (-12.18%)
  Node YS02001884 (9.46%)
  Node YSB1171 (2.74%)
  Node HS02004817 (2.73%)
  
  
  ***************************
  Time-Step Critical Elements
  ***************************
  Link WS02006252WS02006251 (57.64%)
  Link WS02006280WS02006229 (11.58%)
  Link WS02006238WS02006235 (10.12%)
  Link YS02001793JiankangQianchi (4.79%)
  Link YS02006556YS02006558 (2.51%)
  
  
  ********************************
  Highest Flow Instability Indexes
  ********************************
  Link WS02006113WS02006111 (49)
  Link YS02163601YS02164001 (35)
  Link YS02163301YS02001633 (33)
  Link YS02001629YS02163301 (33)
  Link YS02001619YS02001622 (32)
  
  
  *************************
  Routing Time Step Summary
  *************************
  Minimum Time Step           :     0.24 sec
  Average Time Step           :     1.33 sec
  Maximum Time Step           :     5.00 sec
  Percent in Steady State     :    -0.00
  Average Iterations per Step :     4.16
  Percent Not Converging      :    19.29
  
  
  ***************************
  Subcatchment Runoff Summary
  ***************************
  
  ------------------------------------------------------------------------------------------------------------------------------
                            Total      Total      Total      Total     Imperv       Perv      Total       Total     Peak  Runoff
                           Precip      Runon       Evap      Infil     Runoff     Runoff     Runoff      Runoff   Runoff   Coeff
  Subcatchment                 mm         mm         mm         mm         mm         mm         mm    10^6 ltr      LPS
  ------------------------------------------------------------------------------------------------------------------------------
  sub0                      12.16       0.00       0.00       0.65      11.27       0.20      11.47        0.01     1.99   0.943
  sub1                      12.16       0.00       0.00       1.12      10.73       0.22      10.95        0.07    14.96   0.900
  sub2                      12.16       0.00       0.00       4.23       7.58       0.27       7.85        0.07    15.08   0.646
  sub3                      12.16       0.00       0.00       4.29       7.54       0.21       7.75        0.17    34.61   0.637
  sub4                      12.16       0.00       0.00       1.19      10.57       0.14      10.71        0.22    42.34   0.881
  sub5                      12.16       0.00       0.00       0.69      11.21       0.16      11.38        0.13    26.18   0.935
  sub7                      12.16       0.00       0.00       0.88      11.01       0.22      11.22        0.04     7.95   0.923
  sub8                      12.16       0.00       0.00       0.89      11.00       0.21      11.20        0.07    14.89   0.921
  sub9                      12.16       0.00       0.00       0.89      10.99       0.21      11.20        0.05    11.18   0.921
  sub10                     12.16       0.00       0.00       0.79      11.10       0.18      11.28        0.12    25.49   0.928
  sub11                     12.16       0.00       0.00       0.78      11.12       0.19      11.31        0.13    27.35   0.930
  sub12                     12.16       0.00       0.00       1.27      10.53       0.31      10.85        0.09    20.52   0.892
  sub14                     12.16       0.00       0.00       0.89      10.99       0.20      11.20        0.11    22.08   0.920
  sub15                     12.16       0.00       0.00       3.28       8.45       0.37       8.82        0.15    32.49   0.725
  sub16                     12.16       0.00       0.00       3.51       8.11       0.50       8.61        0.09    20.36   0.708
  sub17                     12.16       0.00       0.00       3.41       8.23       0.48       8.71        0.07    16.72   0.716
  sub22                     12.16       0.00       0.00       4.80       6.89       0.43       7.32        0.46   102.62   0.602
  sub23                     12.16       0.00       0.00       4.05       7.62       0.45       8.07        0.38    85.35   0.663
  sub60                     12.16       0.00       0.00       1.42       8.82       0.04       8.86        2.69   336.84   0.729
  sub61                     12.16       0.00       0.00       2.01       8.94       0.06       9.00        2.78   399.45   0.740
  sub62                     12.16       0.00       0.00       0.92       9.73       0.05       9.78        3.01   415.79   0.804
  sub63                     12.16       0.00       0.00       3.46       7.82       0.06       7.88        2.39   361.21   0.648
  sub64                     12.16       0.00       0.00       1.78       8.47       0.04       8.51        2.59   320.97   0.699
  sub65                     12.16       0.00       0.00       1.54       8.61       0.04       8.65        2.66   326.54   0.711
  sub66                     12.16       0.00       0.00       3.49       7.26       0.04       7.30        2.24   290.53   0.600
  sub67                     12.16       0.00       0.00       0.91      10.24       0.07      10.31        3.18   494.23   0.848
  sub68                     12.16       0.00       0.00       1.64       9.40       0.06       9.46        2.91   432.52   0.778
  sub69                     12.16       0.00       0.00       1.73       9.72       0.09       9.82        2.29   383.95   0.807
  sub70                     12.16      10.02       0.00       6.98      13.09       0.56      13.65        3.12   394.93   0.615
  sub71                     12.16       0.00       0.00       0.93       9.48       0.05       9.53        2.25   296.34   0.783
  sub72                     12.16       0.00       0.00       0.83       7.62       0.02       7.64        1.56   151.13   0.628
  1                         12.16      13.29       0.00       1.37      14.64       3.94      18.57        4.36   399.24   0.730
  2                         12.16       0.00       0.00       3.02       2.89       1.65       4.55        1.82   245.52   0.374
  
  
  ****************************
  Subcatchment Washoff Summary
  ****************************
  
  ------------------------------------------------------------------------------------------
                                 COD            SS            TN            TP         NH4-N
  Subcatchment                    kg            kg            kg            kg            kg
  ------------------------------------------------------------------------------------------
  sub0                         2.176         4.147         0.037         0.003         0.018
  sub1                         9.268        18.138         0.173         0.012         0.083
  sub2                         5.563        10.570         0.119         0.008         0.054
  sub3                        13.747        25.918         0.288         0.019         0.132
  sub4                        21.530        42.606         0.429         0.026         0.205
  sub5                        21.300        41.103         0.378         0.029         0.183
  sub7                         4.748         9.424         0.090         0.006         0.043
  sub8                         7.142        14.500         0.143         0.008         0.069
  sub9                         6.100        12.212         0.118         0.007         0.057
  sub10                       17.532        34.266         0.321         0.023         0.155
  sub11                       17.086        33.770         0.320         0.022         0.154
  sub12                       14.392        27.890         0.260         0.019         0.125
  sub14                       13.021        25.823         0.247         0.016         0.119
  sub15                       16.182        30.744         0.313         0.023         0.146
  sub16                       10.318        19.555         0.197         0.015         0.092
  sub17                        9.471        17.789         0.175         0.014         0.082
  sub22                       48.821        90.813         0.932         0.070         0.434
  sub23                       29.138        56.181         0.627         0.041         0.287
  sub60                      203.703       376.194         4.083         0.248         1.956
  sub61                      251.300       461.579         4.699         0.320         2.261
  sub62                      262.762       491.326         5.157         0.324         2.474
  sub63                      185.047       334.594         3.739         0.261         1.731
  sub64                      253.867       452.095         4.687         0.339         2.235
  sub65                      260.106       465.192         4.834         0.344         2.309
  sub66                      146.558       263.078         3.037         0.197         1.417
  sub67                      388.205       718.566         6.963         0.510         3.363
  sub68                      276.714       513.393         5.318         0.356         2.539
  sub69                      247.676       464.012         4.658         0.325         2.225
  sub70                      413.256       778.342         8.287         0.572         3.877
  sub71                      173.740       327.842         3.597         0.206         1.720
  sub72                      136.329       239.316         2.558         0.174         1.230
  1                          280.724       531.718         5.751         0.398         2.660
  2                           35.485        61.812         1.030         0.062         0.437
  ------------------------------------------------------------------------------------------
  System                    3783.006      6994.507        73.566         4.996        34.873
  
  
  ******************
  Node Depth Summary
  ******************
  
  ---------------------------------------------------------------------------------
                                 Average  Maximum  Maximum  Time of Max    Reported
                                   Depth    Depth      HGL   Occurrence   Max Depth
  Node                 Type       Meters   Meters   Meters  days hr:min      Meters
  ---------------------------------------------------------------------------------
  WS02001211           JUNCTION     0.77     0.82     5.65     0  03:14        0.82
  WS02001212           JUNCTION     0.48     0.54     5.60     0  03:13        0.54
  WS02001213           JUNCTION     0.71     0.80     5.56     0  03:12        0.80
  WS02003069           JUNCTION     0.50     0.65     5.23     0  03:12        0.65
  WS02003072           JUNCTION     0.56     0.70     5.07     0  03:12        0.70
  WS02003073           JUNCTION     0.34     0.44     4.50     0  03:13        0.44
  WS02003060           JUNCTION     0.45     0.57     5.50     0  03:11        0.57
  WS02003066           JUNCTION     0.24     0.34     5.89     0  03:10        0.34
  WS02003059           JUNCTION     0.76     0.86     5.54     0  03:12        0.86
  WS02003067           JUNCTION     0.59     0.76     6.08     0  03:10        0.76
  WS02004401           JUNCTION     0.70     1.03     7.03     0  03:08        1.03
  WS02004402           JUNCTION     0.73     1.04     7.00     0  03:08        1.04
  WS02004403           JUNCTION     0.75     1.04     6.97     0  03:08        1.04
  WS02004404           JUNCTION     0.82     1.10     6.95     0  03:08        1.10
  WS02004406           JUNCTION     0.82     1.06     6.89     0  03:08        1.06
  WS02004409           JUNCTION     0.51     0.79     6.56     0  03:09        0.79
  WS02004410           JUNCTION     0.53     0.80     6.52     0  03:09        0.80
  WS02004411           JUNCTION     0.54     0.80     6.48     0  03:10        0.80
  WS02004412           JUNCTION     0.56     0.79     6.43     0  03:10        0.79
  WS02004413           JUNCTION     0.72     0.94     6.41     0  03:10        0.94
  WS02004405           JUNCTION     0.82     1.08     6.93     0  03:08        1.08
  WS02006109           JUNCTION     0.78     1.15     7.77     0  03:07        1.15
  WS02006110           JUNCTION     0.77     1.03     7.62     0  03:02        1.03
  WS02006111           JUNCTION     0.23     0.46     7.16     0  03:08        0.46
  WS02006112           JUNCTION     0.87     1.26     7.15     0  03:08        1.26
  WS02006113           JUNCTION     0.35     0.53     7.42     0  03:01        0.52
  WS02006115           JUNCTION     0.59     0.96     7.10     0  03:08        0.96
  WS02006116           JUNCTION     0.67     1.03     7.07     0  03:08        1.03
  WS02006230           JUNCTION     0.77     1.30     8.05     0  03:08        1.30
  WS02006231           JUNCTION     0.52     1.03     8.15     0  03:12        1.01
  WS02006232           JUNCTION     0.65     1.20     8.24     0  03:13        1.20
  WS02006234           JUNCTION     0.58     1.18     8.34     0  03:12        1.18
  WS02006235           JUNCTION     0.61     1.26     8.42     0  03:13        1.24
  WS02006238           JUNCTION     0.64     1.28     8.43     0  03:13        1.27
  WS02006240           JUNCTION     0.53     1.20     8.49     0  03:12        1.20
  WS02006242           JUNCTION     0.58     1.27     8.54     0  03:12        1.26
  WS02006243           JUNCTION     0.46     1.16     8.58     0  03:12        1.16
  WS02006245           JUNCTION     0.43     1.14     8.62     0  03:12        1.13
  WS02006247           JUNCTION     0.44     1.15     8.65     0  03:12        1.14
  WS02006248           JUNCTION     0.38     1.09     8.67     0  03:12        1.08
  WS02006249           JUNCTION     0.40     1.09     8.69     0  03:12        1.09
  WS02006239           JUNCTION     0.59     1.25     8.46     0  03:12        1.24
  WS02006251           JUNCTION     0.38     1.34     9.01     0  05:19        1.18
  WS02006252           JUNCTION     0.25     0.89     9.13     0  05:19        0.71
  WS02006253           JUNCTION     0.41     1.40     9.04     0  05:19        1.21
  WS02006256           JUNCTION     1.65     2.35     9.28     0  00:00        2.35
  WS02004138           JUNCTION     0.19     0.20     7.45     0  00:00        0.19
  WS02004139           JUNCTION     0.71     0.76     5.67     0  03:14        0.76
  WS02004407           JUNCTION     0.23     0.35     6.66     0  03:09        0.35
  WS02006228           JUNCTION     0.79     1.24     7.89     0  03:07        1.24
  WS02006229           JUNCTION     0.77     1.27     7.97     0  03:07        1.27
  WS02006280           JUNCTION     0.07     0.20     8.47     0  03:02        0.20
  WS02006284           JUNCTION     0.37     0.56     8.96     0  03:02        0.56
  WS02006287           JUNCTION     0.10     0.30     9.25     0  03:01        0.30
  WSF200               JUNCTION     0.22     0.37     5.60     0  03:10        0.37
  HS02004901           JUNCTION     0.13     0.29    10.12     0  03:01        0.29
  HS02004881           JUNCTION     0.01     0.04     9.07     0  03:01        0.04
  HS02004876           JUNCTION     0.05     0.12     9.15     0  03:01        0.12
  HS02004870           JUNCTION     0.02     0.07     9.35     0  03:01        0.07
  HS02004862           JUNCTION     0.02     0.08     9.46     0  03:01        0.08
  HS02004856           JUNCTION     0.08     0.13     9.55     0  03:01        0.13
  HS02004852           JUNCTION     0.01     0.05     9.56     0  03:01        0.05
  HS02004848           JUNCTION     0.01     0.05     9.65     0  03:01        0.05
  HS02004842           JUNCTION     0.33     0.38     9.65     0  03:01        0.38
  HS02004837           JUNCTION     0.03     0.07     9.65     0  03:01        0.07
  HS02004830           JUNCTION     0.04     0.08     9.55     0  03:01        0.08
  HS02004824           JUNCTION     0.02     0.06     9.47     0  03:01        0.06
  HS02004817           JUNCTION     0.44     0.61     9.45     0  03:01        0.61
  HS02004807           JUNCTION     0.13     0.28     9.45     0  03:01        0.28
  HS02004802           JUNCTION     0.17     0.31     9.44     0  03:01        0.31
  HS02004799           JUNCTION     0.13     0.35     9.56     0  03:01        0.35
  HS02004792           JUNCTION     0.04     0.15     9.67     0  03:01        0.15
  HS02004788           JUNCTION     0.03     0.11    10.01     0  03:01        0.11
  HS02004785           JUNCTION     0.05     0.18    10.09     0  03:01        0.18
  HS02004777           JUNCTION     0.15     0.31    10.11     0  03:01        0.31
  HS02004770           JUNCTION     0.12     0.29    10.12     0  03:01        0.29
  HS02004480           JUNCTION     0.09     0.28     9.52     0  03:01        0.28
  HS02004479           JUNCTION     0.12     0.32     9.52     0  03:01        0.32
  HS02004478           JUNCTION     0.07     0.20     9.42     0  03:01        0.20
  YS02001745           JUNCTION     0.73     0.93     8.45     0  03:01        0.93
  YS02001748           JUNCTION     1.12     1.59     8.67     0  02:27        1.36
  YS02001751           JUNCTION     1.30     1.71     8.59     0  02:27        1.55
  YS02001754           JUNCTION     1.56     1.84     8.45     0  02:27        1.82
  YS02001762           JUNCTION     1.76     2.05     8.45     0  03:39        2.02
  YS02001765           JUNCTION     1.71     2.00     8.45     0  03:39        1.98
  YS02001767           JUNCTION     1.67     1.95     8.44     0  03:39        1.93
  YS02001770           JUNCTION     1.67     1.92     8.42     0  02:59        1.92
  YS02001774           JUNCTION     1.73     1.98     8.40     0  03:00        1.98
  YS02001779           JUNCTION     1.48     1.68     8.37     0  02:27        1.68
  YS02001882           JUNCTION     0.55     1.62     8.33     0  03:00        1.61
  YS02001884           JUNCTION     0.64     1.72     8.34     0  03:01        1.72
  YS02001759           JUNCTION     1.79     2.09     8.45     0  03:39        2.06
  YS02001887           JUNCTION     0.72     1.80     8.34     0  03:00        1.79
  YS02001890           JUNCTION     0.75     1.81     8.32     0  02:57        1.81
  YS02001898           JUNCTION     0.52     1.56     8.29     0  02:53        1.55
  YS02001901           JUNCTION     0.64     1.67     8.28     0  02:59        1.67
  YS02001904           JUNCTION     0.61     1.64     8.27     0  03:00        1.63
  YS02001907           JUNCTION     0.94     1.96     8.25     0  02:44        1.96
  YS02001910           JUNCTION     0.73     1.78     8.29     0  02:46        1.76
  YS02001915           JUNCTION     0.53     1.58     8.30     0  02:46        1.57
  YS02001918           JUNCTION     0.28     1.26     8.33     0  02:45        1.23
  YS02001619           JUNCTION     1.27     1.61     8.54     0  02:27        1.50
  YS02001629           JUNCTION     1.62     1.85     8.40     0  02:27        1.84
  YS02001641           JUNCTION     1.72     1.93     8.37     0  02:54        1.93
  YS02001644           JUNCTION     1.72     1.92     8.35     0  02:35        1.92
  YS02001652           JUNCTION     1.57     2.09     8.68     0  02:52        1.90
  YS02001655           JUNCTION     1.33     2.07     8.92     0  02:52        1.69
  YS02001920           JUNCTION     0.38     1.34     8.35     0  02:45        1.30
  YS02001923           JUNCTION     0.22     1.10     8.36     0  02:45        1.06
  YS02001926           JUNCTION     0.28     0.92     8.36     0  02:45        0.91
  YS02001929           JUNCTION     0.16     0.68     8.38     0  02:46        0.66
  YS02001658           JUNCTION     1.07     2.02     9.16     0  02:52        1.45
  YS02001661           JUNCTION     0.83     1.98     9.38     0  02:52        1.39
  YS02001664           JUNCTION     0.37     0.57     8.50     0  02:45        0.56
  YS02001622           JUNCTION     1.29     1.62     8.52     0  02:27        1.51
  YS02001633           JUNCTION     1.71     1.95     8.40     0  02:35        1.94
  YS02001649           JUNCTION     1.76     2.05     8.44     0  02:37        2.05
  YS02001757           JUNCTION     1.89     2.18     8.44     0  03:39        2.16
  YS02001895           JUNCTION     0.51     1.56     8.31     0  02:58        1.56
  YS02001625           JUNCTION     1.57     1.78     8.38     0  02:27        1.78
  YS02163301           JUNCTION     1.65     1.90     8.42     0  02:27        1.87
  YS02163601           JUNCTION     1.76     1.99     8.39     0  02:35        1.98
  YS02164001           JUNCTION     1.70     1.92     8.38     0  02:35        1.91
  YS02001647           JUNCTION     1.55     1.80     8.41     0  02:41        1.79
  YSB1154              JUNCTION     0.26     0.47     9.52     0  03:01        0.47
  YSB6556              JUNCTION     0.16     0.35     9.52     0  03:01        0.35
  YSB1174              JUNCTION     0.21     0.41     9.52     0  03:01        0.41
  YSB1171              JUNCTION     0.41     0.62     9.52     0  03:01        0.62
  YS02006553           JUNCTION     0.95     1.97     8.25     0  02:59        1.96
  YS02006561           JUNCTION     0.31     1.08     7.74     0  02:49        1.07
  YS02006556           JUNCTION     0.91     1.92     8.23     0  02:58        1.92
  YS02006558           JUNCTION     0.95     1.96     8.23     0  03:00        1.95
  YS02001783           JUNCTION     0.51     1.47     7.61     0  02:44        1.47
  YS02001784           JUNCTION     0.53     1.48     7.55     0  02:34        1.40
  YS02001786           JUNCTION     0.46     1.57     7.60     0  02:34        1.25
  YS02001788           JUNCTION     0.39     1.59     7.57     0  02:34        1.12
  YS02001790           JUNCTION     0.48     1.96     7.60     0  04:31        1.29
  YS02001791           JUNCTION     0.41     1.64     7.11     0  06:07        1.27
  YS02001793           JUNCTION     0.53     1.97     6.80     0  04:31        1.82
  WSC                  OUTFALL      0.34     0.44     1.11     0  03:13        0.44
  JK-storage           STORAGE      2.34     5.80     6.60     0  02:34        5.80
  CC-storage           STORAGE      1.15     1.43     8.43     0  03:04        1.43
  XR-storage           STORAGE      6.46     7.72     5.72     0  02:57        7.72
  
  
  *******************
  Node Inflow Summary
  *******************
  
  -------------------------------------------------------------------------------------------------
                                  Maximum  Maximum                  Lateral       Total        Flow
                                  Lateral    Total  Time of Max      Inflow      Inflow     Balance
                                   Inflow   Inflow   Occurrence      Volume      Volume       Error
  Node                 Type           LPS      LPS  days hr:min    10^6 ltr    10^6 ltr     Percent
  -------------------------------------------------------------------------------------------------
  WS02001211           JUNCTION      7.35   389.56     0  03:34       0.207        10.1       0.390
  WS02001212           JUNCTION      0.00   391.68     0  03:34           0        10.1       0.233
  WS02001213           JUNCTION      0.00   393.66     0  03:33           0        10.1       0.265
  WS02003069           JUNCTION      0.32  1125.33     0  03:12     0.00902        18.7       0.145
  WS02003072           JUNCTION      0.00  1125.28     0  03:12           0        18.6       0.184
  WS02003073           JUNCTION      1.82  1127.12     0  03:13      0.0514        18.6       0.206
  WS02003060           JUNCTION     16.53  1124.97     0  03:11       0.466        18.7       0.138
  WS02003066           JUNCTION      0.00   723.02     0  03:10           0        8.19       0.033
  WS02003059           JUNCTION      0.00   396.42     0  03:33           0        10.1       0.374
  WS02003067           JUNCTION      0.00   722.96     0  03:10           0         8.2       0.077
  WS02004401           JUNCTION      0.00   723.20     0  03:08           0        8.36       0.188
  WS02004402           JUNCTION      0.00   723.23     0  03:09           0        8.35       0.181
  WS02004403           JUNCTION      0.00   723.29     0  03:09           0        8.33       0.169
  WS02004404           JUNCTION      0.16   723.49     0  03:09     0.00457        8.32       0.134
  WS02004406           JUNCTION      0.00   723.56     0  03:09           0        8.29       0.326
  WS02004409           JUNCTION      0.00   723.54     0  03:09           0        8.26       0.104
  WS02004410           JUNCTION      0.00   723.32     0  03:09           0        8.25       0.125
  WS02004411           JUNCTION      0.00   723.15     0  03:09           0        8.24       0.135
  WS02004412           JUNCTION      0.00   723.03     0  03:10           0        8.23       0.156
  WS02004413           JUNCTION      0.00   722.97     0  03:10           0        8.22       0.250
  WS02004405           JUNCTION      0.04   723.54     0  03:09     0.00107        8.31       0.198
  WS02006109           JUNCTION      1.23   716.57     0  03:07      0.0347        8.38       0.205
  WS02006110           JUNCTION      0.00   716.58     0  03:07           0        8.36       0.192
  WS02006111           JUNCTION      0.00   726.58     0  03:01           0        8.34       0.038
  WS02006112           JUNCTION     16.72   723.53     0  03:07      0.0747        8.41       0.305
  WS02006113           JUNCTION      0.00   716.62     0  03:07           0        8.35       0.087
  WS02006115           JUNCTION      0.00   723.53     0  03:07           0        8.39       0.165
  WS02006116           JUNCTION      0.00   723.18     0  03:08           0        8.37       0.137
  WS02006230           JUNCTION     10.28   531.61     0  05:21        0.29        6.22       0.209
  WS02006231           JUNCTION      0.00   521.46     0  05:21           0        5.93       0.118
  WS02006232           JUNCTION      0.00   521.43     0  05:20           0        5.95       0.251
  WS02006234           JUNCTION      0.00   521.49     0  05:23           0        5.95       0.090
  WS02006235           JUNCTION      0.00   522.10     0  05:21           0         6.1       0.158
  WS02006238           JUNCTION      0.00   413.08     0  05:40           0        2.76       0.203
  WS02006240           JUNCTION      0.00   412.95     0  05:40           0        2.66       0.376
  WS02006242           JUNCTION      0.00   413.24     0  05:40           0        2.62       0.486
  WS02006243           JUNCTION      0.00   413.36     0  05:40           0        2.58       0.195
  WS02006245           JUNCTION      0.00   413.67     0  05:40           0        2.57       0.454
  WS02006247           JUNCTION      0.00   413.83     0  05:40           0        2.57       0.265
  WS02006248           JUNCTION      0.00   414.09     0  05:40           0        2.56       0.168
  WS02006249           JUNCTION      0.00   428.12     0  05:19           0        2.63       0.389
  WS02006239           JUNCTION      0.00   413.08     0  05:40           0        2.71       0.160
  WS02006251           JUNCTION      0.08   426.30     0  03:20     0.00217        2.67       0.302
  WS02006252           JUNCTION      0.00   399.89     0  05:20           0        2.22       0.024
  WS02006253           JUNCTION      1.99    86.07     0  03:01     0.00928       0.455       0.856
  WS02006256           JUNCTION      0.00   983.00     0  02:10           0        9.58       0.011
  WS02004138           JUNCTION      0.00   380.00     0  00:00           0        9.97       0.062
  WS02004139           JUNCTION      0.32   395.85     0  00:00     0.00905        9.98       0.449
  WS02004407           JUNCTION      0.00   723.59     0  03:09           0        8.27       0.049
  WS02006228           JUNCTION      0.00   715.34     0  03:07           0        8.36       0.161
  WS02006229           JUNCTION      0.00   715.39     0  03:07           0        8.37       0.157
  WS02006280           JUNCTION      0.00   413.59     0  03:02           0        2.17       0.003
  WS02006284           JUNCTION      0.10   413.54     0  03:02      0.0027        2.17       0.041
  WS02006287           JUNCTION      0.00   413.19     0  03:01           0        2.17       0.034
  WSF200               JUNCTION      0.00   723.04     0  03:10           0        8.19       0.027
  HS02004901           JUNCTION     20.36    20.36     0  03:01      0.0901      0.0904       1.991
  HS02004881           JUNCTION      7.95    84.19     0  03:01      0.0378        0.41       0.093
  HS02004876           JUNCTION     14.96    76.75     0  03:01      0.0728       0.373       0.148
  HS02004870           JUNCTION     14.89    62.15     0  03:01      0.0716         0.3       0.037
  HS02004862           JUNCTION     15.28    47.68     0  03:01      0.0788       0.229       0.076
  HS02004856           JUNCTION     11.18    32.72     0  03:01      0.0539       0.152       0.961
  HS02004852           JUNCTION      0.00    21.94     0  03:01           0      0.0979       0.059
  HS02004848           JUNCTION     34.61    34.61     0  03:01       0.174       0.174       0.029
  HS02004842           JUNCTION      0.00    12.41     0  03:01           0      0.0895      16.998
  HS02004837           JUNCTION     31.84    43.95     0  03:01       0.303        0.38       0.215
  HS02004830           JUNCTION      0.15    43.85     0  03:01     0.00423        0.37       0.334
  HS02004824           JUNCTION     42.39    85.90     0  03:01       0.225       0.594       0.091
  HS02004817           JUNCTION      0.60    86.28     0  03:01      0.0169        0.61       2.809
  HS02004807           JUNCTION     27.35   112.30     0  03:01       0.131       0.725       0.605
  HS02004802           JUNCTION      0.00   111.36     0  03:01           0       0.723       0.549
  HS02004799           JUNCTION     22.08   258.90     0  03:01       0.107        1.24       0.223
  HS02004792           JUNCTION    102.90   238.00     0  03:01        0.47        1.14       0.036
  HS02004788           JUNCTION     34.16   135.92     0  03:01       0.199       0.669       0.059
  HS02004785           JUNCTION      0.15   103.51     0  03:01     0.00423       0.471       0.106
  HS02004777           JUNCTION      0.03   104.15     0  03:01    0.000846       0.472       1.115
  HS02004770           JUNCTION     85.35   105.10     0  03:01       0.385       0.473       0.660
  HS02004480           JUNCTION      0.00   302.42     0  03:01           0        1.46       0.075
  HS02004479           JUNCTION      0.00    44.90     0  03:02           0       0.232       0.317
  HS02004478           JUNCTION      0.00   413.06     0  03:01           0        2.17       0.013
  YS02001745           JUNCTION    336.84   417.78     0  02:26        2.69         2.7       0.415
  YS02001748           JUNCTION      0.04   583.60     0  02:26     0.00127        2.69       0.802
  YS02001751           JUNCTION      0.01   341.90     0  03:01     0.00031        2.65       0.897
  YS02001754           JUNCTION      0.26   341.03     0  03:01     0.00733        2.64       0.952
  YS02001762           JUNCTION      0.00   291.17     0  02:38           0        1.89       1.134
  YS02001765           JUNCTION      0.00   292.45     0  02:38           0         1.9       1.301
  YS02001767           JUNCTION      0.54   292.73     0  02:38      0.0151        1.92       1.892
  YS02001770           JUNCTION    415.94   608.62     0  03:05        3.01        3.52       0.906
  YS02001774           JUNCTION      0.00   608.67     0  03:05           0        2.09       1.201
  YS02001779           JUNCTION      0.01   608.69     0  03:05    0.000141        2.06       0.759
  YS02001882           JUNCTION      0.00    43.16     0  02:36           0      0.0278       9.261
  YS02001884           JUNCTION      0.00    74.88     0  02:36           0      0.0655      10.449
  YS02001759           JUNCTION    399.49   572.87     0  02:38        2.78        4.13       0.555
  YS02001887           JUNCTION    494.68   494.68     0  03:01        3.19        3.23       0.262
  YS02001890           JUNCTION      0.00   494.86     0  03:01           0        3.18       0.296
  YS02001898           JUNCTION      0.00   494.91     0  03:01           0        3.16       0.096
  YS02001901           JUNCTION      0.00   495.29     0  03:01           0        3.16       0.225
  YS02001904           JUNCTION      0.00   495.02     0  03:01           0        3.16       0.207
  YS02001907           JUNCTION      0.00   942.79     0  03:00           0        7.02       0.354
  YS02001910           JUNCTION      0.00   451.38     0  03:00           0        3.87       0.302
  YS02001915           JUNCTION    296.36   451.32     0  03:00        2.25         3.9       0.160
  YS02001918           JUNCTION      0.00   210.63     0  02:46           0        1.66       0.114
  YS02001619           JUNCTION    290.53   290.53     0  03:01        2.24        2.24       0.557
  YS02001629           JUNCTION      0.00   198.97     0  02:17           0        1.69       1.754
  YS02001641           JUNCTION      0.00   398.98     0  02:34           0        4.25       0.499
  YS02001644           JUNCTION    321.01  1397.30     0  03:01        2.59        10.7       0.251
  YS02001652           JUNCTION      0.00   374.20     0  03:01           0        2.34       1.010
  YS02001655           JUNCTION      0.15   374.04     0  03:01     0.00434        2.37       1.053
  YS02001920           JUNCTION      2.87   210.87     0  02:46      0.0809        1.64       0.187
  YS02001923           JUNCTION      0.04   230.42     0  02:47     0.00106        1.56       0.051
  YS02001926           JUNCTION      0.05   184.57     0  02:46     0.00147        1.56       0.210
  YS02001929           JUNCTION    151.13   151.13     0  03:01        1.56        1.56       0.036
  YS02001658           JUNCTION      0.00   605.06     0  02:23           0         2.4       0.926
  YS02001661           JUNCTION      0.00   625.63     0  02:42           0         2.7      -0.216
  YS02001664           JUNCTION    361.21   361.21     0  03:01        2.38        2.68       0.240
  YS02001622           JUNCTION      0.00   290.81     0  03:01           0        2.22       1.453
  YS02001633           JUNCTION    326.74   396.80     0  02:35        2.66        4.31       0.752
  YS02001649           JUNCTION      0.00   826.64     0  02:35           0        6.19       0.605
  YS02001757           JUNCTION      0.00  1578.64     0  02:35           0        8.71       1.060
  YS02001895           JUNCTION      0.00   495.00     0  03:01           0        3.17       0.169
  YS02001625           JUNCTION      0.00   290.54     0  03:01           0        2.19       1.800
  YS02163301           JUNCTION      0.00   205.45     0  02:27           0        1.67       1.466
  YS02163601           JUNCTION      0.11   397.33     0  02:34      0.0031        4.27       0.717
  YS02164001           JUNCTION      0.00   397.69     0  02:35           0        4.25       0.479
  YS02001647           JUNCTION      0.00   710.09     0  03:06           0        5.39       0.526
  YSB1154              JUNCTION     26.18    26.18     0  03:01       0.129        0.13       1.131
  YSB6556              JUNCTION      0.00    25.82     0  03:01           0        0.13       0.969
  YSB1174              JUNCTION     20.52    20.52     0  03:01      0.0948      0.0952       1.369
  YSB1171              JUNCTION      0.00    45.30     0  03:01           0       0.231       2.821
  YS02006553           JUNCTION      0.00   703.69     0  03:31           0        6.56       0.239
  YS02006561           JUNCTION      0.00   982.16     0  03:00           0        9.44       0.008
  YS02006556           JUNCTION      0.00   703.57     0  03:31           0        6.57       0.176
  YS02006558           JUNCTION    433.40   983.11     0  03:00        2.93        9.47       0.055
  YS02001783           JUNCTION      0.00   982.19     0  02:59           0        9.44       0.026
  YS02001784           JUNCTION      1.06   983.22     0  03:00      0.0299        9.47       0.038
  YS02001786           JUNCTION      0.06   983.27     0  02:59     0.00159        9.47       0.037
  YS02001788           JUNCTION      0.07   983.29     0  03:00       0.002        9.47       0.025
  YS02001790           JUNCTION      0.15   983.51     0  03:00     0.00437        9.47       0.011
  YS02001791           JUNCTION      0.00   983.50     0  03:00           0        9.47       0.014
  YS02001793           JUNCTION      0.00   983.92     0  03:00           0        9.49      -0.010
  WSC                  OUTFALL       0.00  1127.12     0  03:13           0        18.6       0.000
  JK-storage           STORAGE       0.00  1135.08     0  02:04           0        9.64     -10.858
  CC-storage           STORAGE       0.00  1579.37     0  02:35           0        6.24       1.042
  XR-storage           STORAGE     844.76   844.76     0  03:01        11.8        12.4      -0.003
  
  
  **********************
  Node Surcharge Summary
  **********************
  
  Surcharging occurs when water rises above the top of the highest conduit.
  ---------------------------------------------------------------------
                                               Max. Height   Min. Depth
                                   Hours       Above Crown    Below Rim
  Node                 Type      Surcharged         Meters       Meters
  ---------------------------------------------------------------------
  WS02004401           JUNCTION        0.25          0.033        1.627
  WS02004402           JUNCTION        0.32          0.043        1.697
  WS02004403           JUNCTION        0.33          0.040        1.990
  WS02004404           JUNCTION        0.61          0.098        2.682
  WS02004406           JUNCTION        0.54          0.062        2.388
  WS02004405           JUNCTION        0.58          0.083        2.717
  WS02006109           JUNCTION        2.48          0.327        1.493
  WS02006110           JUNCTION        1.19          0.125        1.725
  WS02006112           JUNCTION        1.59          0.263        1.417
  WS02006230           JUNCTION        0.72          0.222        1.348
  WS02006231           JUNCTION        0.93          0.318        1.212
  WS02006232           JUNCTION        2.18          0.502        0.978
  WS02006234           JUNCTION        1.33          0.464        0.776
  WS02006235           JUNCTION        1.62          0.546        0.744
  WS02006238           JUNCTION        1.71          0.564        0.866
  WS02006240           JUNCTION        1.07          0.490        0.900
  WS02006242           JUNCTION        1.20          0.542        0.278
  WS02006243           JUNCTION        0.90          0.454        0.316
  WS02006245           JUNCTION        0.85          0.430        0.420
  WS02006247           JUNCTION        0.85          0.437        0.323
  WS02006248           JUNCTION        0.70          0.367        0.013
  WS02006249           JUNCTION        0.74          0.390        0.000
  WS02006239           JUNCTION        1.28          0.515        0.775
  WS02006251           JUNCTION        0.30          0.308        0.872
  WS02006252           JUNCTION        1.07          0.492        0.608
  WS02006253           JUNCTION        0.33          0.360        2.120
  WS02006256           JUNCTION        6.88          2.050        0.000
  WS02006228           JUNCTION        2.46          0.412        1.788
  YS02001748           JUNCTION        5.31          0.509        0.681
  YS02001751           JUNCTION        5.48          0.711        0.489
  YS02001754           JUNCTION        5.70          0.790        0.360
  YS02001762           JUNCTION        5.87          1.054        0.096
  YS02001765           JUNCTION        5.84          1.001        0.099
  YS02001767           JUNCTION        5.81          0.950        0.080
  YS02001770           JUNCTION        5.80          0.893        0.027
  YS02001774           JUNCTION        5.86          0.980        0.070
  YS02001779           JUNCTION        5.68          0.680        0.000
  YS02001882           JUNCTION        0.90          0.618        0.212
  YS02001884           JUNCTION        0.93          0.660        0.210
  YS02001759           JUNCTION        5.89          1.087        0.123
  YS02001887           JUNCTION        0.99          0.749        0.201
  YS02001890           JUNCTION        1.02          0.760        0.000
  YS02001898           JUNCTION        0.86          0.527        0.213
  YS02001901           JUNCTION        0.96          0.674        0.196
  YS02001904           JUNCTION        0.94          0.637        0.213
  YS02001907           JUNCTION        1.76          0.950        0.000
  YS02001910           JUNCTION        1.06          0.779        0.321
  YS02001915           JUNCTION        0.89          0.585        0.415
  YS02001918           JUNCTION        0.71          0.265        0.545
  YS02001619           JUNCTION        5.47          0.610        0.000
  YS02001629           JUNCTION        5.49          0.470        0.000
  YS02001641           JUNCTION        5.85          0.934        0.166
  YS02001644           JUNCTION        5.85          0.920        0.000
  YS02001652           JUNCTION        5.73          1.055        0.075
  YS02001655           JUNCTION        5.50          1.074        0.126
  YS02001920           JUNCTION        0.74          0.338        0.802
  YS02001658           JUNCTION        5.34          1.020        0.280
  YS02001661           JUNCTION        0.15          0.910        0.480
  YS02001622           JUNCTION        5.51          0.620        0.000
  YS02001633           JUNCTION        5.83          0.928        0.132
  YS02001649           JUNCTION        5.87          1.050        0.000
  YS02001757           JUNCTION        5.98          1.180        0.030
  YS02001895           JUNCTION        0.88          0.562        0.188
  YS02001625           JUNCTION        5.76          0.780        0.000
  YS02163301           JUNCTION        5.81          0.902        0.128
  YS02163601           JUNCTION        5.87          0.994        0.086
  YS02164001           JUNCTION        5.84          0.924        0.176
  YS02001647           JUNCTION        5.75          0.800        0.100
  YS02006553           JUNCTION        1.87          0.966        0.224
  YS02006561           JUNCTION        0.77          0.281        0.869
  YS02006556           JUNCTION        1.31          0.881        0.469
  YS02006558           JUNCTION        1.26          0.863        0.537
  YS02001783           JUNCTION        1.04          0.670        0.930
  YS02001784           JUNCTION        1.02          0.682        0.808
  YS02001786           JUNCTION        0.96          0.773        0.657
  YS02001788           JUNCTION        0.91          0.789        0.691
  YS02001790           JUNCTION        1.82          1.157        0.000
  YS02001791           JUNCTION        1.90          0.838        1.082
  YS02001793           JUNCTION        2.15          0.968        1.632
  
  
  *********************
  Node Flooding Summary
  *********************
  
  Flooding refers to all water that overflows a node, whether it ponds or not.
  --------------------------------------------------------------------------
                                                             Total   Maximum
                                 Maximum   Time of Max       Flood    Ponded
                        Hours       Rate    Occurrence      Volume     Depth
  Node                 Flooded       LPS   days hr:min    10^6 ltr    Meters
  --------------------------------------------------------------------------
  WS02006249              0.27    130.22      0  03:20       0.057     0.000
  WS02006256              3.61    798.26      0  03:13       6.117     0.000
  YS02001779              2.78    608.68      0  03:05       2.041     0.000
  YS02001890              0.01      0.47      0  02:59       0.000     0.000
  YS02001907              0.58    393.71      0  03:01       0.442     0.000
  YS02001619              0.01     18.54      0  02:27       0.000     0.000
  YS02001629              0.01     29.97      0  02:27       0.000     0.000
  YS02001644              5.14   1397.14      0  03:01       9.117     0.000
  YS02001622              0.01     17.41      0  02:27       0.000     0.000
  YS02001649              0.02     28.67      0  02:52       0.001     0.000
  YS02001625              1.20    235.71      0  03:01       0.464     0.000
  YS02001790              0.01    166.88      0  04:31       0.000     0.000
  JK-storage              0.92    815.44      0  02:40       1.105     0.000
  XR-storage              3.02    464.73      0  03:01       1.819     0.000
  
  
  **********************
  Storage Volume Summary
  **********************
  
  --------------------------------------------------------------------------------------------------
                         Average     Avg  Evap Exfil       Maximum     Max    Time of Max    Maximum
                          Volume    Pcnt  Pcnt  Pcnt        Volume    Pcnt     Occurrence    Outflow
  Storage Unit           1000 m3    Full  Loss  Loss       1000 m3    Full    days hr:min        LPS
  --------------------------------------------------------------------------------------------------
  JK-storage               0.117      40     0     0         0.291     100       0  02:34     983.00
  CC-storage               3.197      20     0     0         3.980      25       0  03:04     399.89
  XR-storage               0.776      84     0     0         0.926     100       0  02:57     380.00
  
  
  ***********************
  Outfall Loading Summary
  ***********************
  
  ---------------------------------------------------------------------------------------------------------------------------------
                         Flow       Avg       Max       Total         Total         Total         Total         Total         Total
                         Freq      Flow      Flow      Volume           COD            SS            TN            TP         NH4-N
  Outfall Node           Pcnt       LPS       LPS    10^6 ltr            kg            kg            kg            kg            kg
  ---------------------------------------------------------------------------------------------------------------------------------
  WSC                   99.98    740.84   1127.12      18.603      2232.215      3803.631       149.713        17.760        90.973
  ---------------------------------------------------------------------------------------------------------------------------------
  System                99.98    740.84   1127.12      18.603      2232.215      3803.631       149.713        17.760        90.973
  
  
  ********************
  Link Flow Summary
  ********************
  
  -----------------------------------------------------------------------------
                                 Maximum  Time of Max   Maximum    Max/    Max/
                                  |Flow|   Occurrence   |Veloc|    Full    Full
  Link                 Type          LPS  days hr:min     m/sec    Flow   Depth
  -----------------------------------------------------------------------------
  WS02003066WSF200     CONDUIT    723.04     0  03:10      2.88    0.12    0.27
  WS02006287WS02006284 CONDUIT    413.44     0  03:02      2.04    0.19    0.30
  WS02006284WS02006280 CONDUIT    413.59     0  03:02      2.28    0.17    0.28
  WS02006280WS02006229 CONDUIT    413.63     0  03:02      3.68    0.09    0.20
  WS02006229WS02006228 CONDUIT    715.34     0  03:07      1.42    2.37    1.00
  WS02006256WS02006235 CONDUIT    288.92     0  00:00      4.23    3.06    1.00
  WS02006253WS02006251 CONDUIT     79.89     0  02:58      0.60    0.24    1.00
  WS02006252WS02006251 CONDUIT    400.47     0  06:00      3.19    1.47    1.00
  WS02006251WS02006249 CONDUIT    428.12     0  05:19      1.13    1.23    1.00
  WS02006249WS02006248 CONDUIT    414.09     0  05:40      1.19    2.27    1.00
  WS02006248WS02006247 CONDUIT    413.83     0  05:40      1.16    0.90    1.00
  WS02006247WS02006245 CONDUIT    413.67     0  05:40      1.13    3.28    1.00
  WS02006245WS02006243 CONDUIT    413.36     0  05:40      1.17    1.22    1.00
  WS02006243WS02006242 CONDUIT    413.24     0  05:40      1.07    0.88    1.00
  WS02006242WS02006240 CONDUIT    412.95     0  05:40      1.07    1.64    1.00
  WS02006240WS02006239 CONDUIT    413.08     0  05:40      1.07    1.30    1.00
  WS02006239WS02006238 CONDUIT    413.08     0  05:40      1.07    1.32    1.00
  WS02006238WS02006235 CONDUIT    414.04     0  05:40      1.45    0.92    1.00
  WS02006235WS02006234 CONDUIT    521.49     0  05:23      1.36    5.50    1.00
  WS02006234WS02006232 CONDUIT    521.43     0  05:20      1.39    1.05    1.00
  WS02006232WS02006231 CONDUIT    521.46     0  05:21      1.35    1.09    1.00
  WS02006231WS02006230 CONDUIT    521.33     0  05:21      1.35    7.91    1.00
  WS02006230WS02006229 CONDUIT    532.92     0  05:20      1.38   11.86    1.00
  WS02006228WS02006109 CONDUIT    715.34     0  03:07      1.42    3.13    1.00
  WS02006116WS02004401 CONDUIT    723.20     0  03:08      1.00    1.00    1.00
  WS02006115WS02006116 CONDUIT    723.18     0  03:08      1.02    0.93    0.97
  WS02006113WS02006111 CONDUIT    726.58     0  03:01      2.61    0.87    0.61
  WS02006112WS02006115 CONDUIT    723.53     0  03:07      0.93    0.43    0.98
  WS02006111WS02006112 CONDUIT    715.87     0  03:08      1.72    0.34    0.78
  WS02006110WS02006113 CONDUIT    716.62     0  03:07      1.61    0.65    0.83
  WS02006109WS02006110 CONDUIT    716.58     0  03:07      1.43    1.38    1.00
  WS02004411WS02004412 CONDUIT    723.03     0  03:10      1.08    1.03    0.80
  WS02004401WS02004402 CONDUIT    723.23     0  03:09      1.00    0.87    1.00
  WS02004413WS02003067 CONDUIT    722.96     0  03:10      1.31    0.31    0.66
  WS02004412WS02004413 CONDUIT    722.97     0  03:10      1.00    0.48    0.87
  WS02004410WS02004411 CONDUIT    723.15     0  03:09      1.08    0.99    0.80
  WS02004409WS02004410 CONDUIT    723.32     0  03:09      1.08    0.94    0.80
  WS02004407WS02004409 CONDUIT    723.54     0  03:09      1.57    0.26    0.57
  WS02004406WS02004407 CONDUIT    723.59     0  03:09      1.29    0.32    0.67
  WS02004405WS02004406 CONDUIT    723.56     0  03:09      1.10    1.43    1.00
  WS02004404WS02004405 CONDUIT    723.50     0  03:09      1.15    7.09    1.00
  WS02004403WS02004404 CONDUIT    723.33     0  03:09      0.98    0.52    1.00
  WS02004402WS02004403 CONDUIT    723.29     0  03:09      1.02    1.04    1.00
  WS02004139WS02001211 CONDUIT    382.22     0  03:34      0.90    0.48    0.61
  WS02004138WS02004139 CONDUIT    395.52     0  00:00      3.64    0.08    0.45
  WS02003067WS02003066 CONDUIT    723.02     0  03:10      1.42    0.23    0.46
  WS02001213WS02003059 CONDUIT    396.42     0  03:33      0.89    0.65    0.82
  WS02001212WS02001213 CONDUIT    393.66     0  03:33      1.32    0.61    0.51
  WS02001211WS02001212 CONDUIT    391.68     0  03:34      0.78    0.30    0.68
  WS02003072WS02003073 CONDUIT   1125.30     0  03:13      1.84    2.43    0.53
  WS02003069WS02003072 CONDUIT   1125.28     0  03:12      1.72    0.54    0.56
  WS02003060WS02003069 CONDUIT   1125.01     0  03:12      1.95    0.44    0.51
  WS02003059WS02003060 CONDUIT    400.58     0  04:30      0.95    0.26    0.71
  HS02004901HS02004770 CONDUIT     20.51     0  03:01      0.07    0.08    0.42
  HS02004876HS02004881 CONDUIT     76.54     0  03:01      0.95    0.81    0.12
  HS02004870HS02004876 CONDUIT     61.89     0  03:01      0.65    0.04    0.14
  HS02004842HS02004848 CONDUIT     12.41     0  03:01      0.06    0.01    0.31
  HS02004837HS02004842 CONDUIT     12.97     0  03:02      0.42    0.01    0.32
  HS02004830HS02004837 CONDUIT     43.70     0  03:01      0.57    0.04    0.11
  HS02004824HS02004830 CONDUIT     43.66     0  03:01      0.59    0.06    0.11
  HS02004817HS02004824 CONDUIT     85.68     0  03:01      0.26    0.04    0.48
  HS02004770HS02004777 CONDUIT    104.12     0  03:01      0.35    0.19    0.43
  HS02004799HS02004480 CONDUIT    258.28     0  03:01      0.83    0.33    0.44
  HS02004792HS02004799 CONDUIT    237.01     0  03:01      0.94    0.15    0.36
  HS02004788HS02004792 CONDUIT    135.41     0  03:01      1.06    0.09    0.18
  HS02004785HS02004788 CONDUIT    103.21     0  03:02      0.71    0.78    0.21
  HS02004777HS02004785 CONDUIT    103.36     0  03:01      0.42    0.13    0.35
  HS02004480HS02004478 CONDUIT    302.27     0  03:01      1.26    1.27    0.34
  HS02004479HS02004480 CONDUIT     46.29     0  03:02      0.32    0.04    0.43
  HS02004862HS02004870 CONDUIT     47.43     0  03:01      0.66    0.05    0.10
  HS02004848HS02004852 CONDUIT     21.94     0  03:01      0.45    0.02    0.07
  HS02004856HS02004862 CONDUIT     32.47     0  03:01      0.48    0.03    0.10
  HS02004852HS02004856 CONDUIT     21.85     0  03:02      0.25    0.02    0.13
  HS02004802HS02004478 CONDUIT    111.51     0  03:02      0.45    0.10    0.36
  HS02004478WS02006287 CONDUIT    413.19     0  03:01      1.75    0.12    0.26
  HS02004817HS02004807 CONDUIT     86.13     0  03:01      0.19    0.05    0.63
  HS02004807HS02004802 CONDUIT    111.36     0  03:01      0.38    0.21    0.42
  YS02001759YS02001757 CONDUIT    573.79     0  02:38      0.73    0.41    1.00
  YS02001762YS02001759 CONDUIT    292.57     0  02:28      0.37    0.34    1.00
  YS02001765YS02001762 CONDUIT    291.17     0  02:38      0.37    0.27    1.00
  YS02001770YS02001767 CONDUIT    292.19     0  02:38      0.37    1.16    1.00
  YS02001774YS02001770 CONDUIT    608.67     0  03:05      0.77    0.39    1.00
  YS02001779YS02001774 CONDUIT    608.69     0  03:05      0.78    0.31    1.00
  YS02001649YS02001757 CONDUIT    828.25     0  02:35      1.05    0.50    1.00
  YS02001767YS02001765 CONDUIT    292.45     0  02:38      0.37    0.37    1.00
  YS02006561YS02001783 CONDUIT    982.19     0  02:59      2.15    0.51    1.00
  YS02001783YS02001784 CONDUIT    982.16     0  03:00      1.95    1.35    1.00
  YS02001784YS02001785 CONDUIT    983.21     0  02:59      1.96    2.29    1.00
  YS02001788YS02001790 CONDUIT    983.36     0  03:00      2.44    0.72    1.00
  YS02001790YS02001791 CONDUIT    983.50     0  03:00      2.90    1.07    1.00
  YS02001791YS02001793 CONDUIT    983.92     0  03:00      5.76    0.42    1.00
  YS02001910YS02001907 CONDUIT    451.43     0  03:00      0.57    0.25    1.00
  YS02001786YS02001788 CONDUIT    983.22     0  03:00      2.31    1.89    1.00
  YS02001915YS02001910 CONDUIT    451.38     0  03:00      0.59    0.22    1.00
  YS02001918YS02001915 CONDUIT    246.75     0  03:31      0.44    0.14    1.00
  YS02001923YS02001920 CONDUIT    208.00     0  02:46      0.72    0.09    1.00
  YS02001926YS02001923 CONDUIT    230.38     0  02:47      0.83    0.33    0.89
  YS02001929YS02001926 CONDUIT    184.51     0  02:46      0.89    0.09    0.79
  YS02001920YS02001918 CONDUIT    210.63     0  02:46      0.70    0.20    1.00
  YS02001629YS02163301 CONDUIT    205.45     0  02:27      0.26    0.25    1.00
  YS02001619YS02001622 CONDUIT    290.81     0  03:01      0.61    0.43    1.00
  YS02001622YS02001625 CONDUIT    290.54     0  03:01      0.37    0.16    1.00
  YS02001625YS02001629 CONDUIT    198.97     0  02:17      0.26    0.09    1.00
  YS02163301YS02001633 CONDUIT    207.10     0  02:27      0.26    0.19    1.00
  YS02163601YS02164001 CONDUIT    397.69     0  02:35      0.51    0.35    1.00
  YS02164001YS02001641 CONDUIT    398.98     0  02:34      0.51    0.54    1.00
  YS02001641YS02001644 CONDUIT    399.28     0  02:34      0.51    1.29    1.00
  YS02001647YS02001649 CONDUIT    710.09     0  03:06      0.90    0.37    1.00
  YS02006553YS02006556 CONDUIT    703.57     0  03:31      0.90    0.60    1.00
  YS02006556YS02006558 CONDUIT    704.32     0  03:31      0.90    0.56    1.00
  YSB6556YSB1171       CONDUIT     25.75     0  03:03      0.09    0.03    0.70
  YS02001907YS02006553 CONDUIT    703.69     0  03:31      0.78    0.83    1.00
  YS02006558YS02006561 CONDUIT    982.16     0  03:00      3.47    2.17    1.00
  YS02001633YS02163601 CONDUIT    397.22     0  02:34      0.51    0.42    1.00
  YS02001644YS02001647 CONDUIT    710.20     0  03:06      0.90    0.42    1.00
  YS02001745YS02001748 CONDUIT    583.56     0  02:26      1.47    0.22    0.96
  YS02001748YS02001751 CONDUIT    341.89     0  03:01      1.06    0.17    1.00
  YS02001751YS02001754 CONDUIT    340.77     0  03:01      0.92    0.16    1.00
  YS02001754YS02001757 CONDUIT    341.64     0  03:01      0.43    0.14    1.00
  YS02001882YS02001884 CONDUIT     43.16     0  02:36      0.13    0.05    1.00
  YS02001884YS02001887 CONDUIT     74.88     0  02:36      0.10    0.10    1.00
  YS02001890YS02001895 CONDUIT    495.00     0  03:01      0.63    0.23    1.00
  YS02001895YS02001898 CONDUIT    494.91     0  03:01      0.63    0.86    1.00
  YS02001898YS02001901 CONDUIT    495.29     0  03:01      0.63    0.32    1.00
  YS02001901YS02001904 CONDUIT    495.02     0  03:01      0.63    0.77    1.00
  YS02001904YS02001907 CONDUIT    495.12     0  03:01      0.63    0.17    1.00
  YS02001887YS02001890 CONDUIT    494.86     0  03:01      0.63    0.85    1.00
  YS02001652YS02001649 CONDUIT    374.42     0  03:01      0.63    0.19    1.00
  YS02001655YS02001652 CONDUIT    374.20     0  03:01      0.98    0.18    1.00
  YS02001658YS02001655 CONDUIT    373.88     0  03:01      1.22    0.16    1.00
  YS02001661YS02001658 CONDUIT    605.06     0  02:23      1.55    0.24    1.00
  YS02001664YS02001661 CONDUIT    625.63     0  02:42      1.43    0.20    0.77
  YSB1154YSB6556       CONDUIT     25.82     0  03:01      0.17    0.05    0.59
  YSB1174YSB1171       CONDUIT     20.15     0  03:01      0.07    0.03    0.70
  YSB1171HS02004479    CONDUIT     44.90     0  03:02      0.54    0.03    0.55
  HS02004881HS02006253 CONDUIT     84.16     0  03:01      2.17    0.02    0.52
  YS02001793JiankangQianchi CONDUIT   1135.08     0  02:04     17.50    0.09    1.00
  YS02001757CaochengTiaoxuchi CONDUIT   1579.37     0  02:35      2.02    0.69    1.00
  WSF200WS02003060     CONDUIT    723.12     0  03:11      1.76    0.16    0.39
  1                    CONDUIT   1127.12     0  03:13      3.43    0.39    0.44
  CC-Pump-1            PUMP       200.00     0  03:10              1.00
  CC-Pump-2            PUMP       199.89     0  05:20              1.00
  JK-Pump-1            PUMP       300.00     0  00:00              1.00
  JK-Pump-2            PUMP       683.00     0  02:10              1.00
  XR-Pump-1            PUMP        95.00     0  00:00              1.00
  XR-Pump-2            PUMP        95.00     0  00:00              1.00
  XR-Pump-3            PUMP        95.00     0  00:00              1.00
  XR-Pump-4            PUMP        95.00     0  00:00              1.00
  
  
  ***************************
  Flow Classification Summary
  ***************************
  
  -------------------------------------------------------------------------------------
                      Adjusted    ---------- Fraction of Time in Flow Class ---------- 
                       /Actual         Up    Down  Sub   Sup   Up    Down  Norm  Inlet 
  Conduit               Length    Dry  Dry   Dry   Crit  Crit  Crit  Crit  Ltd   Ctrl  
  -------------------------------------------------------------------------------------
  WS02003066WSF200        1.00   0.01  0.02  0.00  0.00  0.97  0.00  0.00  0.69  0.00
  WS02006287WS02006284    1.00   0.03  0.01  0.00  0.61  0.34  0.00  0.00  0.62  0.00
  WS02006284WS02006280    1.00   0.04  0.00  0.00  0.00  0.00  0.00  0.96  0.00  0.00
  WS02006280WS02006229    1.00   0.04  0.00  0.00  0.00  0.00  0.00  0.96  0.00  0.00
  WS02006229WS02006228    1.00   0.00  0.00  0.00  0.99  0.00  0.00  0.00  0.00  0.00
  WS02006256WS02006235    1.00   0.00  0.00  0.00  1.00  0.00  0.00  0.00  0.00  0.00
  WS02006253WS02006251    1.00   0.02  0.02  0.00  0.95  0.00  0.01  0.00  0.00  0.00
  WS02006252WS02006251    1.00   0.22  0.00  0.00  0.06  0.01  0.71  0.00  0.00  0.00
  WS02006251WS02006249    1.00   0.00  0.00  0.00  1.00  0.00  0.00  0.00  0.35  0.00
  WS02006249WS02006248    1.00   0.00  0.01  0.00  0.86  0.00  0.13  0.00  0.00  0.00
  WS02006248WS02006247    1.00   0.01  0.00  0.00  0.99  0.00  0.00  0.00  0.23  0.00
  WS02006247WS02006245    1.00   0.01  0.00  0.00  0.99  0.00  0.00  0.00  0.00  0.00
  WS02006245WS02006243    1.00   0.00  0.00  0.00  0.95  0.00  0.00  0.04  0.01  0.00
  WS02006243WS02006242    1.00   0.00  0.00  0.00  1.00  0.00  0.00  0.00  0.27  0.00
  WS02006242WS02006240    1.00   0.00  0.00  0.00  1.00  0.00  0.00  0.00  0.00  0.00
  WS02006240WS02006239    1.00   0.00  0.00  0.00  0.95  0.00  0.00  0.05  0.01  0.00
  WS02006239WS02006238    1.00   0.00  0.00  0.00  1.00  0.00  0.00  0.00  0.12  0.00
  WS02006238WS02006235    1.00   0.00  0.00  0.00  1.00  0.00  0.00  0.00  0.00  0.00
  WS02006235WS02006234    1.00   0.00  0.00  0.00  0.96  0.00  0.04  0.00  0.00  0.00
  WS02006234WS02006232    1.00   0.00  0.00  0.00  1.00  0.00  0.00  0.00  0.08  0.00
  WS02006232WS02006231    1.00   0.00  0.00  0.00  1.00  0.00  0.00  0.00  0.00  0.00
  WS02006231WS02006230    1.00   0.00  0.00  0.00  0.61  0.00  0.39  0.00  0.00  0.00
  WS02006230WS02006229    1.00   0.00  0.00  0.00  0.99  0.00  0.00  0.01  0.00  0.00
  WS02006228WS02006109    1.00   0.00  0.00  0.00  1.00  0.00  0.00  0.00  0.00  0.00
  WS02006116WS02004401    1.00   0.01  0.00  0.00  0.99  0.00  0.00  0.00  0.00  0.00
  WS02006115WS02006116    1.00   0.01  0.00  0.00  0.99  0.00  0.00  0.00  0.00  0.00
  WS02006113WS02006111    1.00   0.01  0.00  0.00  0.00  0.99  0.00  0.00  0.21  0.00
  WS02006112WS02006115    1.00   0.01  0.00  0.00  0.99  0.00  0.00  0.00  0.00  0.00
  WS02006111WS02006112    1.00   0.01  0.00  0.00  0.99  0.00  0.00  0.00  0.91  0.00
  WS02006110WS02006113    1.00   0.00  0.00  0.00  0.99  0.00  0.00  0.00  0.00  0.00
  WS02006109WS02006110    1.00   0.00  0.00  0.00  0.99  0.00  0.00  0.00  0.00  0.00
  WS02004411WS02004412    1.00   0.02  0.00  0.00  0.98  0.00  0.00  0.00  0.00  0.00
  WS02004401WS02004402    1.00   0.01  0.00  0.00  0.99  0.00  0.00  0.00  0.00  0.00
  WS02004413WS02003067    1.00   0.02  0.01  0.00  0.00  0.00  0.97  0.00  0.00  0.00
  WS02004412WS02004413    1.00   0.02  0.00  0.00  0.98  0.00  0.00  0.00  0.01  0.00
  WS02004410WS02004411    1.00   0.02  0.00  0.00  0.98  0.00  0.00  0.00  0.00  0.00
  WS02004409WS02004410    1.00   0.02  0.00  0.00  0.98  0.00  0.00  0.00  0.02  0.00
  WS02004407WS02004409    1.00   0.02  0.00  0.00  0.98  0.00  0.00  0.00  0.95  0.00
  WS02004406WS02004407    1.00   0.00  0.02  0.00  0.98  0.00  0.00  0.00  0.00  0.00
  WS02004405WS02004406    1.00   0.00  0.00  0.00  1.00  0.00  0.00  0.00  0.00  0.00
  WS02004404WS02004405    1.00   0.00  0.00  0.00  1.00  0.00  0.00  0.00  0.00  0.00
  WS02004403WS02004404    1.00   0.00  0.01  0.00  0.99  0.00  0.00  0.00  0.00  0.00
  WS02004402WS02004403    1.00   0.01  0.00  0.00  0.99  0.00  0.00  0.00  0.00  0.00
  WS02004139WS02001211    1.00   0.00  0.00  0.00  1.00  0.00  0.00  0.00  0.00  0.00
  WS02004138WS02004139    1.00   0.00  0.00  0.00  1.00  0.00  0.00  0.00  1.00  0.00
  WS02003067WS02003066    1.00   0.03  0.00  0.00  0.97  0.00  0.00  0.00  0.00  0.00
  WS02001213WS02003059    1.00   0.00  0.00  0.00  1.00  0.00  0.00  0.00  0.00  0.00
  WS02001212WS02001213    1.00   0.00  0.00  0.00  0.90  0.00  0.10  0.00  0.00  0.00
  WS02001211WS02001212    1.00   0.00  0.00  0.00  1.00  0.00  0.00  0.00  0.00  0.00
  WS02003072WS02003073    1.00   0.00  0.00  0.00  0.00  0.00  0.00  1.00  0.00  0.00
  WS02003069WS02003072    1.00   0.00  0.00  0.00  1.00  0.00  0.00  0.00  0.09  0.00
  WS02003060WS02003069    1.00   0.00  0.00  0.00  0.99  0.01  0.00  0.00  0.07  0.00
  WS02003059WS02003060    1.00   0.00  0.00  0.00  1.00  0.00  0.00  0.00  0.01  0.00
  HS02004901HS02004770    1.00   0.04  0.00  0.00  0.96  0.00  0.00  0.00  0.00  0.00
  HS02004876HS02004881    1.00   0.01  0.00  0.00  0.92  0.07  0.00  0.00  0.00  0.00
  HS02004870HS02004876    1.00   0.00  0.00  0.00  0.99  0.00  0.00  0.00  0.95  0.00
  HS02004842HS02004848    1.00   0.00  0.04  0.00  0.96  0.00  0.00  0.00  0.55  0.00
  HS02004837HS02004842    1.00   0.00  0.00  0.00  1.00  0.00  0.00  0.00  0.11  0.00
  HS02004830HS02004837    1.00   0.00  0.00  0.00  1.00  0.00  0.00  0.00  0.99  0.00
  HS02004824HS02004830    1.00   0.00  0.00  0.00  1.00  0.00  0.00  0.00  0.00  0.00
  HS02004817HS02004824    1.00   0.00  0.00  0.00  1.00  0.00  0.00  0.00  1.00  0.00
  HS02004770HS02004777    1.00   0.00  0.04  0.00  0.96  0.00  0.00  0.00  0.02  0.00
  HS02004799HS02004480    1.00   0.00  0.01  0.00  0.95  0.00  0.03  0.00  0.00  0.00
  HS02004792HS02004799    1.00   0.00  0.00  0.00  0.99  0.01  0.00  0.00  0.98  0.00
  HS02004788HS02004792    1.00   0.00  0.00  0.00  1.00  0.00  0.00  0.00  0.98  0.00
  HS02004785HS02004788    1.00   0.00  0.00  0.00  1.00  0.00  0.00  0.00  0.00  0.00
  HS02004777HS02004785    1.00   0.00  0.00  0.00  1.00  0.00  0.00  0.00  0.12  0.00
  HS02004480HS02004478    1.00   0.04  0.00  0.00  0.67  0.00  0.00  0.28  0.00  0.00
  HS02004479HS02004480    1.00   0.02  0.00  0.00  0.98  0.00  0.00  0.00  0.11  0.00
  HS02004862HS02004870    1.00   0.00  0.00  0.00  1.00  0.00  0.00  0.00  0.03  0.00
  HS02004848HS02004852    1.00   0.04  0.00  0.00  0.96  0.00  0.00  0.00  0.62  0.00
  HS02004856HS02004862    1.00   0.00  0.05  0.00  0.95  0.00  0.00  0.00  0.83  0.00
  HS02004852HS02004856    1.00   0.04  0.00  0.00  0.96  0.00  0.00  0.00  0.85  0.00
  HS02004802HS02004478    1.00   0.04  0.00  0.00  0.96  0.00  0.00  0.00  0.02  0.00
  HS02004478WS02006287    1.00   0.05  0.00  0.00  0.74  0.21  0.00  0.00  0.64  0.00
  HS02004817HS02004807    1.00   0.00  0.04  0.00  0.96  0.00  0.00  0.00  0.01  0.00
  HS02004807HS02004802    1.00   0.04  0.00  0.00  0.95  0.00  0.00  0.00  0.00  0.00
  YS02001759YS02001757    1.00   0.00  0.00  0.00  1.00  0.00  0.00  0.00  0.16  0.00
  YS02001762YS02001759    1.00   0.00  0.00  0.00  1.00  0.00  0.00  0.00  0.03  0.00
  YS02001765YS02001762    1.00   0.00  0.00  0.00  1.00  0.00  0.00  0.00  0.13  0.00
  YS02001770YS02001767    1.00   0.00  0.00  0.00  1.00  0.00  0.00  0.00  0.00  0.00
  YS02001774YS02001770    1.00   0.00  0.04  0.00  0.96  0.00  0.00  0.00  0.03  0.00
  YS02001779YS02001774    1.00   0.00  0.00  0.00  1.00  0.00  0.00  0.00  0.18  0.00
  YS02001649YS02001757    1.00   0.00  0.00  0.00  1.00  0.00  0.00  0.00  0.16  0.00
  YS02001767YS02001765    1.00   0.00  0.00  0.00  1.00  0.00  0.00  0.00  0.00  0.00
  YS02006561YS02001783    1.00   0.06  0.00  0.00  0.26  0.68  0.00  0.00  0.48  0.00
  YS02001783YS02001784    1.00   0.00  0.06  0.00  0.94  0.00  0.00  0.00  0.01  0.00
  YS02001784YS02001785    1.00   0.00  0.00  0.00  1.00  0.00  0.00  0.00  0.17  0.00
  YS02001788YS02001790    1.00   0.00  0.00  0.00  0.31  0.69  0.00  0.00  0.38  0.00
  YS02001790YS02001791    1.00   0.00  0.00  0.00  0.26  0.74  0.00  0.00  0.49  0.00
  YS02001791YS02001793    1.00   0.00  0.00  0.00  0.29  0.71  0.00  0.00  0.03  0.00
  YS02001910YS02001907    1.00   0.00  0.00  0.00  0.99  0.00  0.00  0.01  0.12  0.00
  YS02001786YS02001788    1.00   0.00  0.00  0.00  0.30  0.70  0.00  0.00  0.00  0.00
  YS02001915YS02001910    1.00   0.00  0.00  0.00  0.99  0.01  0.00  0.00  0.15  0.00
  YS02001918YS02001915    1.00   0.00  0.00  0.00  0.99  0.01  0.00  0.00  0.55  0.00
  YS02001923YS02001920    1.00   0.00  0.00  0.00  1.00  0.00  0.00  0.00  0.84  0.00
  YS02001926YS02001923    1.00   0.00  0.03  0.00  0.14  0.00  0.83  0.00  0.00  0.00
  YS02001929YS02001926    1.00   0.00  0.04  0.00  0.96  0.00  0.00  0.00  0.77  0.00
  YS02001920YS02001918    1.00   0.00  0.00  0.00  1.00  0.00  0.00  0.00  0.00  0.00
  YS02001629YS02163301    1.00   0.05  0.00  0.00  0.95  0.00  0.00  0.00  0.00  0.00
  YS02001619YS02001622    1.00   0.04  0.00  0.00  0.96  0.00  0.00  0.00  0.00  0.00
  YS02001622YS02001625    1.00   0.04  0.00  0.00  0.96  0.00  0.00  0.00  0.04  0.00
  YS02001625YS02001629    1.00   0.04  0.02  0.00  0.92  0.00  0.02  0.00  0.00  0.00
  YS02163301YS02001633    1.00   0.00  0.05  0.00  0.95  0.00  0.00  0.00  0.00  0.00
  YS02163601YS02164001    1.00   0.00  0.03  0.00  0.97  0.00  0.00  0.00  0.00  0.00
  YS02164001YS02001641    1.00   0.00  0.02  0.00  0.97  0.00  0.00  0.00  0.06  0.00
  YS02001641YS02001644    1.00   0.00  0.00  0.00  1.00  0.00  0.00  0.00  0.00  0.00
  YS02001647YS02001649    1.00   0.00  0.05  0.00  0.95  0.00  0.00  0.00  0.01  0.00
  YS02006553YS02006556    1.00   0.01  0.00  0.00  0.99  0.00  0.00  0.00  0.03  0.00
  YS02006556YS02006558    1.00   0.00  0.00  0.00  1.00  0.00  0.00  0.00  0.00  0.00
  YSB6556YSB1171          1.00   0.02  0.02  0.00  0.96  0.00  0.00  0.00  0.00  0.00
  YS02001907YS02006553    1.00   0.00  0.01  0.00  0.99  0.00  0.00  0.00  0.00  0.00
  YS02006558YS02006561    1.00   0.06  0.00  0.00  0.14  0.80  0.00  0.00  0.50  0.00
  YS02001633YS02163601    1.00   0.00  0.00  0.00  1.00  0.00  0.00  0.00  0.15  0.00
  YS02001644YS02001647    1.00   0.00  0.05  0.00  0.95  0.00  0.00  0.00  0.00  0.00
  YS02001745YS02001748    1.00   0.00  0.00  0.00  0.90  0.01  0.00  0.09  0.04  0.00
  YS02001748YS02001751    1.00   0.00  0.00  0.00  0.97  0.03  0.00  0.00  0.15  0.00
  YS02001751YS02001754    1.00   0.00  0.00  0.00  0.94  0.00  0.00  0.06  0.02  0.00
  YS02001754YS02001757    1.00   0.00  0.00  0.00  1.00  0.00  0.00  0.00  0.18  0.00
  YS02001882YS02001884    1.00   0.05  0.00  0.00  0.95  0.00  0.00  0.00  0.00  0.00
  YS02001884YS02001887    1.00   0.02  0.01  0.00  0.96  0.00  0.00  0.00  0.00  0.00
  YS02001890YS02001895    1.00   0.00  0.05  0.00  0.95  0.00  0.00  0.00  0.00  0.00
  YS02001895YS02001898    1.00   0.05  0.00  0.00  0.94  0.00  0.01  0.00  0.00  0.00
  YS02001898YS02001901    1.00   0.05  0.00  0.00  0.95  0.00  0.00  0.00  0.01  0.00
  YS02001901YS02001904    1.00   0.05  0.00  0.00  0.95  0.00  0.00  0.00  0.00  0.00
  YS02001904YS02001907    1.00   0.00  0.05  0.00  0.95  0.00  0.00  0.00  0.00  0.00
  YS02001887YS02001890    1.00   0.00  0.00  0.00  0.99  0.00  0.01  0.00  0.00  0.00
  YS02001652YS02001649    1.00   0.00  0.00  0.00  1.00  0.00  0.00  0.00  0.16  0.00
  YS02001655YS02001652    1.00   0.00  0.00  0.00  0.94  0.00  0.00  0.06  0.02  0.00
  YS02001658YS02001655    1.00   0.00  0.04  0.00  0.92  0.03  0.00  0.00  0.08  0.00
  YS02001661YS02001658    1.00   0.04  0.00  0.00  0.90  0.05  0.00  0.00  0.08  0.00
  YS02001664YS02001661    1.00   0.04  0.00  0.00  0.91  0.05  0.00  0.00  0.19  0.00
  YSB1154YSB6556          1.00   0.04  0.00  0.00  0.96  0.00  0.00  0.00  0.01  0.00
  YSB1174YSB1171          1.00   0.02  0.01  0.00  0.97  0.00  0.00  0.00  0.00  0.00
  YSB1171HS02004479       1.00   0.02  0.00  0.00  0.98  0.00  0.00  0.00  0.10  0.00
  HS02004881HS02006253    1.00   0.02  0.00  0.00  0.52  0.02  0.00  0.43  0.32  0.00
  YS02001793JiankangQianchi    1.00   0.00  0.00  0.00  0.63  0.36  0.00  0.00  0.41  0.00
  YS02001757CaochengTiaoxuchi    1.00   0.00  0.08  0.00  0.92  0.00  0.00  0.00  0.00  0.00
  WSF200WS02003060        1.00   0.00  0.01  0.00  0.99  0.00  0.00  0.00  0.57  0.00
  1                       1.00   0.00  0.00  0.00  0.00  1.00  0.00  0.00  0.49  0.00
  
  
  *************************
  Conduit Surcharge Summary
  *************************
  
  ----------------------------------------------------------------------------
                                                           Hours        Hours 
                         --------- Hours Full --------   Above Full   Capacity
  Conduit                Both Ends  Upstream  Dnstream   Normal Flow   Limited
  ----------------------------------------------------------------------------
  WS02006229WS02006228        2.46      2.54      2.46      3.79         2.46
  WS02006256WS02006235        5.65      5.66      6.88      4.17         0.01
  WS02006253WS02006251        0.68      0.68      0.72      0.01         0.01
  WS02006252WS02006251        0.51      0.51      1.07      0.85         0.01
  WS02006251WS02006249        0.69      0.69      0.74      0.36         0.24
  WS02006249WS02006248        0.70      0.70      0.74      1.82         0.01
  WS02006248WS02006247        0.73      0.73      0.85      0.01         0.01
  WS02006247WS02006245        0.85      0.87      0.85      2.29         0.84
  WS02006245WS02006243        0.86      0.87      0.90      0.23         0.13
  WS02006243WS02006242        0.92      0.92      1.20      0.01         0.01
  WS02006242WS02006240        1.07      1.07      1.36      1.08         0.01
  WS02006240WS02006239        1.13      1.14      1.28      0.40         0.18
  WS02006239WS02006238        1.46      1.47      1.71      0.44         0.22
  WS02006238WS02006235        1.69      1.69      1.93      0.01         0.01
  WS02006235WS02006234        1.33      1.33      1.62      5.53         0.01
  WS02006234WS02006232        1.53      1.53      2.17      0.17         0.19
  WS02006232WS02006231        0.93      0.93      2.17      0.35         0.01
  WS02006231WS02006230        0.72      0.72      0.98      5.76         0.01
  WS02006230WS02006229        3.02      3.50      3.02      6.10         3.02
  WS02006228WS02006109        2.48      2.77      2.48      4.80         2.48
  WS02006116WS02004401        0.23      0.23      0.25      0.01         0.01
  WS02006112WS02006115        0.01      0.01      1.59      0.01         0.01
  WS02006111WS02006112        0.01      0.01      4.01      0.01         0.01
  WS02006110WS02006113        0.01      0.01      2.65      0.01         0.01
[...]
  YS02001765YS02001762        5.84      5.84      5.87      0.01         0.01
  YS02001770YS02001767        5.81      5.81      5.81      0.19         0.66
  YS02001774YS02001770        5.80      5.80      5.86      0.01         0.01
  YS02001779YS02001774        5.68      5.68      5.86      0.01         0.01
  YS02001649YS02001757        5.87      5.87      5.98      0.01         0.01
  YS02001767YS02001765        5.81      5.81      5.84      0.01         0.01
  YS02006561YS02001783        0.77      0.77      1.04      0.01         0.01
  YS02001783YS02001784        1.02      1.04      1.02      1.40         1.00
  YS02001784YS02001785        0.96      1.02      0.96      2.38         0.96
  YS02001788YS02001790        0.91      0.91      1.82      0.01         0.01
  YS02001790YS02001791        1.82      1.82      1.90      0.87         0.84
  YS02001791YS02001793        1.90      1.90      2.23      0.01         0.01
  YS02001910YS02001907        1.06      1.06      1.76      0.01         0.01
  YS02001786YS02001788        0.91      0.96      0.91      1.97         0.91
  YS02001915YS02001910        0.89      0.89      1.06      0.01         0.01
  YS02001918YS02001915        0.71      0.71      0.89      0.01         0.01
  YS02001923YS02001920        0.53      0.53      0.74      0.01         0.01
  YS02001920YS02001918        0.71      0.71      0.74      0.01         0.01
  YS02001629YS02163301        5.80      5.80      5.81      0.01         0.01
  YS02001619YS02001622        5.47      5.47      5.51      0.01         0.01
  YS02001622YS02001625        5.51      5.51      5.76      0.01         0.01
  YS02001625YS02001629        5.49      5.49      5.76      0.01         0.01
  YS02163301YS02001633        5.81      5.81      5.84      0.01         0.01
  YS02163601YS02164001        5.84      5.84      5.87      0.01         0.01
  YS02164001YS02001641        5.84      5.84      5.85      0.01         0.03
  YS02001641YS02001644        5.85      5.85      5.85      1.52         1.57
  YS02001647YS02001649        5.75      5.75      5.87      0.01         0.01
  YS02006553YS02006556        1.31      1.31      1.87      0.01         0.01
  YS02006556YS02006558        1.53      1.53      1.93      0.01         0.01
  YS02001907YS02006553        2.41      2.41      2.63      0.01         0.01
  YS02006558YS02006561        0.90      1.26      0.90      2.23         0.90
  YS02001633YS02163601        5.83      5.83      5.87      0.01         0.01
  YS02001644YS02001647        5.75      5.75      5.85      0.01         0.01
  YS02001745YS02001748        0.01      0.01      5.31      0.01         0.01
  YS02001748YS02001751        5.36      5.36      5.48      0.01         0.01
  YS02001751YS02001754        5.47      5.47      5.70      0.01         0.01
  YS02001754YS02001757        5.74      5.74      5.98      0.01         0.01
  YS02001882YS02001884        0.90      0.90      0.93      0.01         0.01
  YS02001884YS02001887        0.97      0.97      0.99      0.01         0.01
  YS02001890YS02001895        0.88      0.88      1.08      0.01         0.01
  YS02001895YS02001898        0.86      0.86      0.88      0.01         0.01
  YS02001898YS02001901        0.88      0.88      0.96      0.01         0.01
  YS02001901YS02001904        0.94      0.94      0.96      0.01         0.01
  YS02001904YS02001907        0.94      0.94      1.89      0.01         0.01
  YS02001887YS02001890        1.02      1.02      1.03      0.01         0.01
  YS02001652YS02001649        5.76      5.76      5.87      0.01         0.01
  YS02001655YS02001652        5.50      5.50      5.73      0.01         0.01
  YS02001658YS02001655        5.33      5.33      5.50      0.01         0.01
  YS02001661YS02001658        0.14      0.14      5.33      0.01         0.01
  YS02001664YS02001661        0.01      0.01      1.10      0.01         0.01
  HS02004881HS02006253        0.01      0.01      0.33      0.01         0.01
  YS02001793JiankangQianchi        2.15      2.15      4.04      0.01         0.01
  YS02001757CaochengTiaoxuchi        5.21      5.21      5.98      0.01         0.01
  
  
  ***************
  Pumping Summary
  ***************
  
  ---------------------------------------------------------------------------------------------------------
                                                  Min       Avg       Max     Total     Power    % Time Off
                        Percent   Number of      Flow      Flow      Flow    Volume     Usage    Pump Curve
  Pump                 Utilized   Start-Ups       LPS       LPS       LPS  10^6 ltr     Kw-hr    Low   High
  ---------------------------------------------------------------------------------------------------------
  CC-Pump-1               40.41           5      0.00    152.18    200.00     1.620      1.36    0.0    0.0
  CC-Pump-2               21.28           4      0.00     92.26    199.89     0.600      0.67    0.0    0.0
  JK-Pump-1               57.45           5      0.00    234.48    300.00     3.509     55.16    0.0    0.0
  JK-Pump-2               51.06           4      0.00    435.01    683.00     6.070     88.12    0.0   96.0
  XR-Pump-1               97.87           2      0.00     94.46     95.00     2.565     25.54    0.0    0.0
  XR-Pump-2               97.87           2      0.00     93.15     95.00     2.508     24.27    0.0    0.0
  XR-Pump-3               95.75           3      0.00     93.08     95.00     2.451     23.12    0.0    0.0
  XR-Pump-4               95.75           3      0.00     93.08     95.00     2.451     23.12    0.0    0.0
  
  
  ***************************
  Link Pollutant Load Summary
  ***************************
  
  ------------------------------------------------------------------------------------------
                                 COD            SS            TN            TP         NH4-N
  Link                            kg            kg            kg            kg            kg
  ------------------------------------------------------------------------------------------
  WS02003066WSF200           686.365      1265.275        18.867         1.693        10.043
  WS02006287WS02006284       268.018       498.123         9.345         0.943         5.213
  WS02006284WS02006280       268.502       498.900         9.392         0.949         5.243
  WS02006280WS02006229       268.471       498.841         9.390         0.948         5.242
  WS02006229WS02006228       678.533      1251.520        18.318         1.625         9.707
  WS02006256WS02006235       194.192       355.827         4.329         0.339         2.196
  WS02006253WS02006251        49.983        96.532         1.113         0.083         0.552
  WS02006252WS02006251       187.517       339.326         3.969         0.290         1.959
  WS02006251WS02006249       231.419       424.998         4.955         0.364         2.449
  WS02006249WS02006248       225.459       414.075         4.828         0.355         2.386
  WS02006248WS02006247       225.259       413.723         4.825         0.355         2.385
  WS02006247WS02006245       225.125       413.445         4.823         0.355         2.384
  WS02006245WS02006243       224.999       413.210         4.821         0.355         2.383
  WS02006243WS02006242       226.086       415.015         4.851         0.357         2.399
  WS02006242WS02006240       227.643       417.597         4.892         0.361         2.421
  WS02006240WS02006239       229.967       421.618         4.950         0.365         2.451
  WS02006239WS02006238       233.446       427.537         5.049         0.374         2.504
  WS02006238WS02006235       235.422       430.812         5.104         0.379         2.533
  WS02006235WS02006234       414.197       760.009         9.034         0.685         4.521
  WS02006234WS02006232       413.584       758.881         9.026         0.685         4.518
  WS02006232WS02006231       412.565       757.067         9.002         0.683         4.506
  WS02006231WS02006230       411.634       755.438         8.981         0.681         4.495
  WS02006230WS02006229       411.047       754.419         8.964         0.680         4.486
  WS02006228WS02006109       677.281      1249.300        18.279         1.621         9.686
  WS02006116WS02004401       688.422      1268.863        18.970         1.705        10.104
  WS02006115WS02006116       689.201      1270.203        19.011         1.709        10.128
  WS02006113WS02006111       682.558      1257.295        18.969         1.710        10.124
  WS02006112WS02006115       690.087      1271.710        19.058         1.714        10.156
  WS02006111WS02006112       681.936      1256.212        18.942         1.707        10.108
  WS02006110WS02006113       683.159      1258.325        18.997         1.713        10.140
  WS02006109WS02006110       684.427      1260.495        19.054         1.719        10.173
  WS02004411WS02004412       687.308      1266.858        18.928         1.700        10.079
  WS02004401WS02004402       687.764      1267.754        18.931         1.700        10.080
  WS02004413WS02003067       686.376      1265.305        18.869         1.693        10.044
  WS02004412WS02004413       687.062      1266.446        18.910         1.698        10.069
  WS02004410WS02004411       687.430      1267.064        18.937         1.701        10.086
  WS02004409WS02004410       687.616      1267.376        18.950         1.703        10.094
  WS02004407WS02004409       687.631      1267.408        18.954         1.703        10.096
  WS02004406WS02004407       687.494      1267.191        18.947         1.703        10.092
  WS02004405WS02004406       687.970      1267.976        18.983         1.707        10.114
  WS02004404WS02004405       687.825      1267.760        18.970         1.705        10.106
  WS02004403WS02004404       686.921      1266.332        18.877         1.694        10.047
  WS02004402WS02004403       687.324      1267.008        18.903         1.697        10.063
  WS02004139WS02001211      1405.108      2314.851       116.860        14.311        72.167
  WS02004138WS02004139      1411.484      2325.381       117.374        14.373        72.483
  WS02003067WS02003066       686.432      1265.393        18.870         1.693        10.045
  WS02001213WS02003059      1438.532      2367.629       120.276        14.741        74.311
  WS02001212WS02001213      1447.557      2382.448       121.031        14.834        74.778
  WS02001211WS02001212      1449.492      2385.592       121.202        14.855        74.884
  WS02003072WS02003073      2226.715      3795.239       149.089        17.680        90.579
  WS02003069WS02003072      2231.275      3802.625       149.492        17.730        90.829
  WS02003060WS02003069      2233.722      3806.702       149.679        17.753        90.944
  WS02003059WS02003060      1435.934      2363.274       120.085        14.718        74.195
  HS02004901HS02004770        10.269        19.475         0.195         0.015         0.091
  HS02004876HS02004881        37.314        72.571         0.843         0.062         0.416
  HS02004870HS02004876        28.158        54.622         0.678         0.051         0.338
  HS02004842HS02004848         5.467        10.276         0.115         0.008         0.053
  HS02004837HS02004842        10.072        17.582         0.584         0.067         0.347
  HS02004830HS02004837        65.637       112.700         4.557         0.546         2.785
  HS02004824HS02004830        66.387       113.901         4.628         0.555         2.829
  HS02004817HS02004824        88.202       156.966         5.083         0.584         3.051
  HS02004770HS02004777        39.291        75.457         0.819         0.055         0.377
  HS02004799HS02004480       131.391       245.331         3.680         0.335         1.932
  HS02004792HS02004799       119.071       220.632         3.496         0.327         1.853
  HS02004788HS02004792        68.388       126.841         2.388         0.235         1.309
  HS02004785HS02004788        40.728        77.749         0.969         0.074         0.471
  HS02004777HS02004785        40.054        76.656         0.908         0.067         0.433
  HS02004480HS02004478       165.928       312.543         4.243         0.375         2.195
  HS02004479HS02004480        38.143        72.969         0.884         0.079         0.462
  HS02004862HS02004870        21.014        40.113         0.536         0.043         0.270
  HS02004848HS02004852         8.057        15.278         0.167         0.011         0.077
  HS02004856HS02004862        14.070        27.337         0.284         0.019         0.133
  HS02004852HS02004856         8.063        15.289         0.167         0.011         0.077
  HS02004802HS02004478       102.879       186.873         5.162         0.575         3.055
  HS02004478WS02006287       268.221       498.466         9.363         0.945         5.224
  HS02004817HS02004807        86.884       154.853         4.957         0.568         2.972
  HS02004807HS02004802       103.107       187.229         5.194         0.580         3.075
  YS02001759YS02001757       299.815       543.950         6.035         0.418         2.952
  YS02001762YS02001759       159.858       291.776         3.383         0.238         1.674
  YS02001765YS02001762       160.575       293.728         3.415         0.242         1.692
  YS02001770YS02001767       162.248       298.790         3.274         0.218         1.592
  YS02001774YS02001770       214.262       409.181         4.166         0.276         2.015
  YS02001779YS02001774       213.782       408.202         4.261         0.290         2.080
  YS02001649YS02001757       353.877       633.614         7.169         0.493         3.453
  YS02001767YS02001765       161.945       296.889         3.455         0.245         1.714
  YS02006561YS02001783       935.993      1716.537        19.830         1.488         9.896
  YS02001783YS02001784       935.860      1716.326        19.825         1.488         9.894
  YS02001784YS02001785       943.195      1728.085        20.538         1.577        10.340
  YS02001788YS02001790       943.764      1729.009        20.609         1.586        10.385
  YS02001790YS02001791       944.850      1730.791        20.710         1.599        10.448
  YS02001791YS02001793       944.741      1730.596        20.706         1.598        10.445
  YS02001910YS02001907       330.117       599.239         8.232         0.642         4.253
  YS02001786YS02001788       943.389      1728.410        20.565         1.580        10.357
  YS02001915YS02001910       330.195       599.363         8.188         0.636         4.223
  YS02001918YS02001915       159.946       278.019         4.661         0.433         2.537
  YS02001923YS02001920       137.642       241.468         2.675         0.188         1.302
  YS02001926YS02001923       136.681       239.902         2.595         0.178         1.253
  YS02001929YS02001926       136.172       239.032         2.555         0.174         1.228
  YS02001920YS02001918       157.908       274.010         4.592         0.427         2.499
  YS02001629YS02163301       103.525       183.442         2.171         0.140         1.012
  YS02001619YS02001622       146.382       262.908         3.030         0.196         1.414
  YS02001622YS02001625       145.223       261.077         3.003         0.195         1.401
  YS02001625YS02001629       104.632       185.274         2.196         0.142         1.023
  YS02163301YS02001633       103.242       182.967         2.164         0.140         1.009
  YS02163601YS02164001       362.019       646.175         7.115         0.502         3.403
  YS02164001YS02001641       361.529       645.352         7.096         0.500         3.392
  YS02001641YS02001644       361.776       645.696         7.095         0.500         3.391
  YS02001647YS02001649       410.394       742.053         8.229         0.568         3.944
  YS02006553YS02006556       657.495      1200.155        14.232         1.095         7.178
  YS02006556YS02006558       657.446      1200.053        14.200         1.090         7.157
  YSB6556YSB1171              21.951        42.194         0.451         0.038         0.229
  YS02001907YS02006553       657.598      1200.364        14.246         1.097         7.187
  YS02006558YS02006561       936.002      1716.542        19.830         1.488         9.896
  YS02001633YS02163601       362.740       647.296         7.096         0.498         3.387
  YS02001644YS02001647       415.788       751.782         8.311         0.574         3.981
  YS02001745YS02001748       210.376       386.947         4.760         0.334         2.380
  YS02001748YS02001751       208.365       383.148         4.798         0.343         2.413
  YS02001751YS02001754       207.411       381.587         4.780         0.342         2.406
  YS02001754YS02001757       208.175       382.736         4.944         0.365         2.512
  YS02001882YS02001884         3.581         6.230         0.071         0.005         0.035
  YS02001884YS02001887         6.894        12.212         0.135         0.010         0.067
  YS02001890YS02001895       389.320       720.382         7.187         0.539         3.507
  YS02001895YS02001898       389.134       720.120         7.180         0.539         3.503
  YS02001898YS02001901       388.928       719.769         7.175         0.538         3.501
  YS02001901YS02001904       388.779       719.560         7.182         0.539         3.506
  YS02001904YS02001907       388.989       719.879         7.235         0.546         3.540
  YS02001887YS02001890       390.124       721.585         7.241         0.546         3.540
  YS02001652YS02001649       155.953       284.962         3.184         0.229         1.492
  YS02001655YS02001652       156.704       286.160         3.204         0.230         1.502
  YS02001658YS02001655       156.448       285.734         3.123         0.219         1.448
  YS02001661YS02001658       160.672       293.215         3.210         0.225         1.488
  YS02001664YS02001661       176.551       319.789         3.560         0.249         1.648
  YSB1154YSB6556              21.531        41.525         0.402         0.032         0.198
  YSB1174YSB1171              14.654        28.289         0.298         0.024         0.150
  YSB1171HS02004479           38.102        72.903         0.888         0.079         0.465
  HS02004881HS02006253        42.296        82.572         0.932         0.068         0.459
  YS02001793JiankangQianchi       948.942      1737.458        20.885         1.617        10.548
  YS02001757CaochengTiaoxuchi       514.835       924.507        10.943         0.790         5.391
  WSF200WS02003060           686.599      1265.668        18.879         1.694        10.050
  1                         2232.215      3803.631       149.713        17.760        90.973
  CC-Pump-1                  136.281       246.557         2.877         0.210         1.418
  CC-Pump-2                   50.979        92.350         1.075         0.078         0.530
  JK-Pump-1                  223.624       413.100         4.896         0.381         2.474
  JK-Pump-2                  477.627       888.122         9.985         0.751         4.978
  XR-Pump-1                  367.030       604.040        30.681         3.760        18.955
  XR-Pump-2                  356.041       586.457        29.633         3.629        18.301
  XR-Pump-3                  346.119       570.574        28.692         3.512        17.714
  XR-Pump-4                  346.119       570.574        28.692         3.512        17.714
  

  Analysis begun on:  Thu Jul 15 15:31:07 2021
  Analysis ended on:  Thu Jul 15 15:31:10 2021
  Total elapsed time: 00:00:03