
  EPA STORM WATER MANAGEMENT MODEL - VERSION 5.1 (Build 5.3.0.dev0)
  --------------------------------------------------------------

  WARNING 04: minimum elevation drop used for Conduit WS02004404WS02004405
  WARNING 03: negative offset ignored for Link YS02001904YS02001907
  
  *********************************************************
  NOTE: The summary statistics displayed in this report are
  based on results found at every computational time step,  
  not just on results from each reporting time step.
  *********************************************************
  
  ****************
  Analysis Options
  ****************
  Flow Units ............... LPS
  Process Models:
    Rainfall/Runoff ........ YES
    RDII ................... NO
    Snowmelt ............... NO
    Groundwater ............ NO
    Flow Routing ........... YES
    Ponding Allowed ........ NO
    Water Quality .......... YES
  Infiltration Method ...... HORTON
  Flow Routing Method ...... DYNWAVE
  Surcharge Method ......... EXTRAN
  Starting Date ............ 08/28/2015 08:00:00
  Ending Date .............. 08/28/2015 15:50:00
  Antecedent Dry Days ...... 8.0
  Report Time Step ......... 00:01:00
  Wet Time Step ............ 00:01:00
  Dry Time Step ............ 00:01:00
  Routing Time Step ........ 5.00 sec
  Variable Time Step ....... YES
  Maximum Trials ........... 8
  Number of Threads ........ 4
  Head Tolerance ........... 0.001500 m
  
  
  **************************        Volume         Depth
  Runoff Quantity Continuity     hectare-m            mm
  **************************     ---------       -------
  Total Precipitation ......         5.556        12.164
  Evaporation Loss .........         0.000         0.000
  Infiltration Loss ........         1.002         2.194
  Surface Runoff ...........         3.688         8.075
  Final Storage ............         0.866         1.897
  Continuity Error (%) .....        -0.019
  
  
  **************************           COD            SS            TN            TP         NH4-N
  Runoff Quality Continuity             kg            kg            kg            kg            kg
  **************************    ----------    ----------    ----------    ----------    ----------
  Initial Buildup ..........     41378.656     70582.865      1804.177       168.684      1032.807
  Surface Buildup ..........        19.275        34.271         2.335         0.213         1.362
  Wet Deposition ...........         0.000         0.000         0.000         0.000         0.000
  Sweeping Removal .........         0.000         0.000         0.000         0.000         0.000
  Infiltration Loss ........        84.023       157.502         1.599         0.111         0.761
  BMP Removal ..............         0.000         0.000         0.000         0.000         0.000
  Surface Runoff ...........      3122.074      5752.154        60.620         4.098        28.771
  Remaining Buildup ........     38190.779     64705.500      1744.271       164.686      1004.628
  Continuity Error (%) .....         0.003         0.003         0.001         0.001         0.001
  
  
  **************************        Volume        Volume
  Flow Routing Continuity        hectare-m      10^6 ltr
  **************************     ---------     ---------
  Dry Weather Inflow .......         0.616         6.165
  Wet Weather Inflow .......         3.687        36.871
  Groundwater Inflow .......         0.000         0.000
  RDII Inflow ..............         0.000         0.000
  External Inflow ..........         0.102         1.024
  External Outflow .........         1.813        18.134
  Flooding Loss ............         2.148        21.484
  Evaporation Loss .........         0.000         0.000
  Exfiltration Loss ........         0.000         0.000
  Initial Stored Volume ....         0.076         0.761
  Final Stored Volume ......         0.638         6.382
  Continuity Error (%) .....        -2.633
  
  
  **************************           COD            SS            TN            TP         NH4-N
  Quality Routing Continuity            kg            kg            kg            kg            kg
  **************************    ----------    ----------    ----------    ----------    ----------
  Dry Weather Inflow .......      1541.201      2465.922       147.955        18.494        92.472
  Wet Weather Inflow .......      3121.394      5751.014        60.605         4.097        28.764
  Groundwater Inflow .......         0.000         0.000         0.000         0.000         0.000
  RDII Inflow ..............         0.000         0.000         0.000         0.000         0.000
  External Inflow ..........       183.418       293.469        17.608         2.201        11.005
  External Outflow .........      2188.062      3726.393       148.372        17.637        90.248
  Flooding Loss ............      1960.020      3585.246        50.385         4.351        26.424
  Exfiltration Loss ........         0.000         0.000         0.000         0.000         0.000
  Mass Reacted .............         0.000         0.000         0.000         0.000         0.000
  Initial Stored Mass ......         0.000         0.000         0.000         0.000         0.000
  Final Stored Mass ........       557.513       958.561        23.922         2.527        13.787
  Continuity Error (%) .....         2.898         2.822         1.543         1.118         1.348
  
  
  *************************
  Highest Continuity Errors
  *************************
  Node HS02004842 (14.53%)
  Node JK-storage (-11.74%)
  Node YS02001884 (11.51%)
  Node YSB1171 (2.74%)
  Node HS02004817 (2.73%)
  
  
  ***************************
  Time-Step Critical Elements
  ***************************
  Link WS02006252WS02006251 (53.36%)
  Link WS02006280WS02006229 (13.23%)
  Link WS02006238WS02006235 (9.26%)
  Link YS02001793JiankangQianchi (6.59%)
  Link YS02006556YS02006558 (4.28%)
  
  
  ********************************
  Highest Flow Instability Indexes
  ********************************
  Link WS02006113WS02006111 (49)
  Link YS02163601YS02164001 (32)
  Link YS02163301YS02001633 (31)
  Link YS02001629YS02163301 (30)
  Link YS02001619YS02001622 (29)
  
  
  *************************
  Routing Time Step Summary
  *************************
  Minimum Time Step           :     0.02 sec
  Average Time Step           :     1.37 sec
  Maximum Time Step           :     5.00 sec
  Percent in Steady State     :    -0.00
  Average Iterations per Step :     3.98
  Percent Not Converging      :    17.67
  
  
  ***************************
  Subcatchment Runoff Summary
  ***************************
  
  ------------------------------------------------------------------------------------------------------------------------------
                            Total      Total      Total      Total     Imperv       Perv      Total       Total     Peak  Runoff
                           Precip      Runon       Evap      Infil     Runoff     Runoff     Runoff      Runoff   Runoff   Coeff
  Subcatchment                 mm         mm         mm         mm         mm         mm         mm    10^6 ltr      LPS
  ------------------------------------------------------------------------------------------------------------------------------
  sub0                      12.16       0.00       0.00       0.65      11.27       0.20      11.47        0.01     1.99   0.943
  sub1                      12.16       0.00       0.00       1.12      10.73       0.22      10.95        0.07    14.96   0.900
  sub2                      12.16       0.00       0.00       4.23       7.58       0.27       7.85        0.07    15.08   0.646
  sub3                      12.16       0.00       0.00       4.29       7.54       0.21       7.75        0.17    34.61   0.637
  sub4                      12.16       0.00       0.00       1.19      10.57       0.14      10.71        0.22    42.34   0.881
  sub5                      12.16       0.00       0.00       0.69      11.21       0.16      11.38        0.13    26.18   0.935
  sub7                      12.16       0.00       0.00       0.88      11.01       0.22      11.22        0.04     7.95   0.923
  sub8                      12.16       0.00       0.00       0.89      11.00       0.21      11.20        0.07    14.89   0.921
  sub9                      12.16       0.00       0.00       0.89      10.99       0.21      11.20        0.05    11.18   0.921
  sub10                     12.16       0.00       0.00       0.79      11.10       0.18      11.28        0.12    25.49   0.928
  sub11                     12.16       0.00       0.00       0.78      11.12       0.19      11.31        0.13    27.35   0.930
  sub12                     12.16       0.00       0.00       1.27      10.53       0.31      10.85        0.09    20.52   0.892
  sub14                     12.16       0.00       0.00       0.89      10.99       0.20      11.20        0.11    22.08   0.920
  sub15                     12.16       0.00       0.00       3.28       8.45       0.37       8.82        0.15    32.49   0.725
  sub16                     12.16       0.00       0.00       3.51       8.11       0.50       8.61        0.09    20.36   0.708
  sub17                     12.16       0.00       0.00       3.41       8.23       0.48       8.71        0.07    16.72   0.716
  sub22                     12.16       0.00       0.00       4.80       6.89       0.43       7.32        0.46   102.62   0.602
  sub23                     12.16       0.00       0.00       4.05       7.62       0.45       8.07        0.38    85.35   0.663
  sub60                     12.16       0.00       0.00       1.42       8.82       0.04       8.86        2.69   336.84   0.729
  sub61                     12.16       0.00       0.00       2.01       8.94       0.06       9.00        2.78   399.45   0.740
  sub62                     12.16       0.00       0.00       0.92       9.73       0.05       9.78        3.01   415.79   0.804
  sub63                     12.16       0.00       0.00       3.46       7.82       0.06       7.88        2.39   361.21   0.648
  sub64                     12.16       0.00       0.00       1.78       8.47       0.04       8.51        2.59   320.97   0.699
  sub65                     12.16       0.00       0.00       1.54       8.61       0.04       8.65        2.66   326.54   0.711
  sub66                     12.16       0.00       0.00       3.49       7.26       0.04       7.30        2.24   290.53   0.600
  sub67                     12.16       0.00       0.00       0.91      10.24       0.07      10.31        3.18   494.23   0.848
  sub68                     12.16       0.00       0.00       1.64       9.40       0.06       9.46        2.91   432.52   0.778
  sub69                     12.16       0.00       0.00       1.73       9.72       0.09       9.82        2.29   383.95   0.807
  sub70                     12.16      10.02       0.00       6.98      13.09       0.56      13.65        3.12   394.93   0.615
  sub71                     12.16       0.00       0.00       0.93       9.48       0.05       9.53        2.25   296.34   0.783
  sub72                     12.16       0.00       0.00       0.83       7.62       0.02       7.64        1.56   151.13   0.628
  1                         12.16      13.29       0.00       1.37      14.64       3.94      18.57        4.36   399.24   0.730
  2                         12.16       0.00       0.00       3.02       2.89       1.65       4.55        1.82   245.52   0.374
  
  
  ****************************
  Subcatchment Washoff Summary
  ****************************
  
  ------------------------------------------------------------------------------------------
                                 COD            SS            TN            TP         NH4-N
  Subcatchment                    kg            kg            kg            kg            kg
  ------------------------------------------------------------------------------------------
  sub0                         2.176         4.147         0.037         0.003         0.018
  sub1                         9.268        18.138         0.173         0.012         0.083
  sub2                         5.563        10.570         0.119         0.008         0.054
  sub3                        13.747        25.918         0.288         0.019         0.132
  sub4                        21.530        42.606         0.429         0.026         0.205
  sub5                        21.300        41.103         0.378         0.029         0.183
  sub7                         4.748         9.424         0.090         0.006         0.043
  sub8                         7.142        14.500         0.143         0.008         0.069
  sub9                         6.100        12.212         0.118         0.007         0.057
  sub10                       17.532        34.266         0.321         0.023         0.155
  sub11                       17.086        33.770         0.320         0.022         0.154
  sub12                       14.392        27.890         0.260         0.019         0.125
  sub14                       13.021        25.823         0.247         0.016         0.119
  sub15                       16.182        30.744         0.313         0.023         0.146
  sub16                       10.318        19.555         0.197         0.015         0.092
  sub17                        9.471        17.789         0.175         0.014         0.082
  sub22                       48.821        90.813         0.932         0.070         0.434
  sub23                       29.138        56.181         0.627         0.041         0.287
  sub60                      203.703       376.194         4.083         0.248         1.956
  sub61                      251.300       461.579         4.699         0.320         2.261
  sub62                      262.762       491.326         5.157         0.324         2.474
  sub63                      185.047       334.594         3.739         0.261         1.731
  sub64                      253.867       452.095         4.687         0.339         2.235
  sub65                      260.106       465.192         4.834         0.344         2.309
  sub66                      146.558       263.078         3.037         0.197         1.417
  sub67                      388.205       718.566         6.963         0.510         3.363
  sub68                      276.714       513.393         5.318         0.356         2.539
  sub69                      247.676       464.012         4.658         0.325         2.225
  sub70                      413.256       778.342         8.287         0.572         3.877
  sub71                      173.740       327.842         3.597         0.206         1.720
  sub72                      136.329       239.316         2.558         0.174         1.230
  1                          280.724       531.718         5.751         0.398         2.660
  2                           35.485        61.812         1.030         0.062         0.437
  ------------------------------------------------------------------------------------------
  System                    3783.006      6994.507        73.566         4.996        34.873
  
  
  ******************
  Node Depth Summary
  ******************
  
  ---------------------------------------------------------------------------------
                                 Average  Maximum  Maximum  Time of Max    Reported
                                   Depth    Depth      HGL   Occurrence   Max Depth
  Node                 Type       Meters   Meters   Meters  days hr:min      Meters
  ---------------------------------------------------------------------------------
  WS02001211           JUNCTION     0.76     0.81     5.65     0  03:09        0.81
  WS02001212           JUNCTION     0.47     0.54     5.60     0  03:08        0.54
  WS02001213           JUNCTION     0.70     0.80     5.56     0  03:08        0.80
  WS02003069           JUNCTION     0.49     0.65     5.23     0  03:07        0.65
  WS02003072           JUNCTION     0.55     0.70     5.07     0  03:08        0.70
  WS02003073           JUNCTION     0.33     0.43     4.50     0  03:08        0.43
  WS02003060           JUNCTION     0.43     0.57     5.50     0  03:06        0.57
  WS02003066           JUNCTION     0.23     0.34     5.89     0  03:06        0.34
  WS02003059           JUNCTION     0.75     0.85     5.54     0  03:07        0.85
  WS02003067           JUNCTION     0.57     0.76     6.08     0  03:05        0.76
  WS02004401           JUNCTION     0.67     1.03     7.03     0  03:03        1.03
  WS02004402           JUNCTION     0.70     1.04     7.00     0  03:03        1.04
  WS02004403           JUNCTION     0.72     1.04     6.97     0  03:04        1.04
  WS02004404           JUNCTION     0.79     1.10     6.95     0  03:01        1.09
  WS02004406           JUNCTION     0.80     1.06     6.89     0  03:04        1.06
  WS02004409           JUNCTION     0.48     0.79     6.56     0  03:04        0.79
  WS02004410           JUNCTION     0.50     0.80     6.52     0  03:05        0.80
  WS02004411           JUNCTION     0.52     0.79     6.47     0  03:05        0.79
  WS02004412           JUNCTION     0.53     0.79     6.43     0  03:05        0.79
  WS02004413           JUNCTION     0.69     0.94     6.41     0  03:05        0.94
  WS02004405           JUNCTION     0.79     1.08     6.93     0  03:02        1.08
  WS02006109           JUNCTION     0.75     1.14     7.76     0  03:02        1.14
  WS02006110           JUNCTION     0.74     1.03     7.61     0  03:00        1.03
  WS02006111           JUNCTION     0.21     0.45     7.15     0  03:03        0.45
  WS02006112           JUNCTION     0.84     1.26     7.15     0  03:03        1.26
  WS02006113           JUNCTION     0.33     0.53     7.42     0  03:00        0.53
  WS02006115           JUNCTION     0.56     0.96     7.10     0  03:03        0.96
  WS02006116           JUNCTION     0.64     1.03     7.07     0  03:03        1.03
  WS02006230           JUNCTION     0.72     1.25     7.99     0  03:02        1.25
  WS02006231           JUNCTION     0.48     0.93     8.05     0  03:31        0.91
  WS02006232           JUNCTION     0.61     1.11     8.15     0  03:31        1.10
  WS02006234           JUNCTION     0.53     1.11     8.27     0  03:31        1.10
  WS02006235           JUNCTION     0.56     1.20     8.36     0  03:31        1.18
  WS02006238           JUNCTION     0.59     1.22     8.37     0  03:31        1.21
  WS02006240           JUNCTION     0.48     1.16     8.45     0  03:31        1.15
  WS02006242           JUNCTION     0.53     1.23     8.50     0  03:31        1.23
  WS02006243           JUNCTION     0.40     1.14     8.56     0  03:31        1.13
  WS02006245           JUNCTION     0.38     1.12     8.61     0  04:10        1.12
  WS02006247           JUNCTION     0.39     1.14     8.64     0  03:32        1.13
  WS02006248           JUNCTION     0.33     1.09     8.67     0  03:30        1.08
  WS02006249           JUNCTION     0.35     1.09     8.69     0  03:30        1.09
  WS02006239           JUNCTION     0.54     1.20     8.41     0  03:31        1.19
  WS02006251           JUNCTION     0.33     1.34     9.01     0  04:02        1.12
  WS02006252           JUNCTION     0.21     0.88     9.12     0  04:02        0.67
  WS02006253           JUNCTION     0.36     1.49     9.13     0  04:02        1.21
  WS02006256           JUNCTION     1.65     2.35     9.28     0  00:00        2.35
  WS02004138           JUNCTION     0.19     0.20     7.45     0  00:00        0.19
  WS02004139           JUNCTION     0.71     0.76     5.67     0  03:09        0.76
  WS02004407           JUNCTION     0.22     0.34     6.66     0  03:04        0.34
  WS02006228           JUNCTION     0.75     1.23     7.88     0  03:02        1.23
  WS02006229           JUNCTION     0.73     1.25     7.95     0  03:02        1.25
  WS02006280           JUNCTION     0.07     0.20     8.47     0  03:02        0.20
  WS02006284           JUNCTION     0.37     0.56     8.96     0  03:02        0.56
  WS02006287           JUNCTION     0.10     0.30     9.25     0  03:01        0.30
  WSF200               JUNCTION     0.21     0.37     5.60     0  03:06        0.37
  HS02004901           JUNCTION     0.13     0.29    10.12     0  03:01        0.29
  HS02004881           JUNCTION     0.01     0.04     9.07     0  03:01        0.04
  HS02004876           JUNCTION     0.04     0.12     9.15     0  03:01        0.12
  HS02004870           JUNCTION     0.02     0.07     9.35     0  03:01        0.07
  HS02004862           JUNCTION     0.02     0.08     9.46     0  03:01        0.08
  HS02004856           JUNCTION     0.08     0.13     9.55     0  03:01        0.13
  HS02004852           JUNCTION     0.01     0.05     9.56     0  03:01        0.05
  HS02004848           JUNCTION     0.01     0.05     9.65     0  03:01        0.05
  HS02004842           JUNCTION     0.33     0.38     9.65     0  03:01        0.38
  HS02004837           JUNCTION     0.03     0.07     9.65     0  03:01        0.07
  HS02004830           JUNCTION     0.04     0.08     9.55     0  03:01        0.08
  HS02004824           JUNCTION     0.02     0.06     9.47     0  03:01        0.06
  HS02004817           JUNCTION     0.44     0.61     9.45     0  03:01        0.61
  HS02004807           JUNCTION     0.13     0.28     9.45     0  03:01        0.28
  HS02004802           JUNCTION     0.16     0.31     9.44     0  03:01        0.31
  HS02004799           JUNCTION     0.12     0.35     9.56     0  03:01        0.35
  HS02004792           JUNCTION     0.04     0.15     9.67     0  03:01        0.15
  HS02004788           JUNCTION     0.03     0.11    10.01     0  03:01        0.11
  HS02004785           JUNCTION     0.05     0.18    10.09     0  03:01        0.18
  HS02004777           JUNCTION     0.15     0.31    10.11     0  03:01        0.31
  HS02004770           JUNCTION     0.12     0.29    10.12     0  03:01        0.29
  HS02004480           JUNCTION     0.08     0.28     9.52     0  03:01        0.28
  HS02004479           JUNCTION     0.12     0.32     9.52     0  03:01        0.32
  HS02004478           JUNCTION     0.06     0.20     9.42     0  03:01        0.20
  YS02001745           JUNCTION     0.72     0.93     8.45     0  03:01        0.93
  YS02001748           JUNCTION     1.12     1.38     8.45     0  03:09        1.36
  YS02001751           JUNCTION     1.30     1.57     8.45     0  03:09        1.56
  YS02001754           JUNCTION     1.55     1.84     8.45     0  03:09        1.83
  YS02001762           JUNCTION     1.75     2.05     8.45     0  02:58        2.04
  YS02001765           JUNCTION     1.70     2.00     8.45     0  02:59        1.99
  YS02001767           JUNCTION     1.66     1.95     8.44     0  02:58        1.94
  YS02001770           JUNCTION     1.66     1.93     8.42     0  02:58        1.92
  YS02001774           JUNCTION     1.73     1.98     8.41     0  02:59        1.98
  YS02001779           JUNCTION     1.47     1.68     8.37     0  02:36        1.68
  YS02001882           JUNCTION     0.53     1.62     8.34     0  03:00        1.61
  YS02001884           JUNCTION     0.63     1.72     8.34     0  03:00        1.71
  YS02001759           JUNCTION     1.78     2.08     8.45     0  02:58        2.08
  YS02001887           JUNCTION     0.70     1.80     8.33     0  03:01        1.79
  YS02001890           JUNCTION     0.73     1.81     8.32     0  02:56        1.81
  YS02001898           JUNCTION     0.50     1.56     8.29     0  02:58        1.55
  YS02001901           JUNCTION     0.62     1.67     8.28     0  03:00        1.66
  YS02001904           JUNCTION     0.60     1.64     8.27     0  02:52        1.63
  YS02001907           JUNCTION     0.93     1.96     8.25     0  02:46        1.96
  YS02001910           JUNCTION     0.72     1.77     8.28     0  02:47        1.76
  YS02001915           JUNCTION     0.52     1.58     8.30     0  02:47        1.56
  YS02001918           JUNCTION     0.28     1.24     8.31     0  02:47        1.23
  YS02001619           JUNCTION     1.26     1.59     8.52     0  07:50        1.59
  YS02001629           JUNCTION     1.61     1.85     8.40     0  06:32        1.85
  YS02001641           JUNCTION     1.71     1.99     8.43     0  07:50        1.99
  YS02001644           JUNCTION     1.71     1.92     8.35     0  02:35        1.92
  YS02001652           JUNCTION     1.56     2.15     8.75     0  02:46        1.91
  YS02001655           JUNCTION     1.33     2.04     8.89     0  02:42        1.73
  YS02001920           JUNCTION     0.38     1.31     8.32     0  02:47        1.30
  YS02001923           JUNCTION     0.22     1.06     8.32     0  02:47        1.05
  YS02001926           JUNCTION     0.27     0.88     8.32     0  02:47        0.86
  YS02001929           JUNCTION     0.15     0.64     8.33     0  02:47        0.62
  YS02001658           JUNCTION     1.06     2.14     9.28     0  02:46        1.55
  YS02001661           JUNCTION     0.83     2.22     9.62     0  02:46        1.41
  YS02001664           JUNCTION     0.37     0.57     8.49     0  04:08        0.56
  YS02001622           JUNCTION     1.28     1.58     8.49     0  07:50        1.58
  YS02001633           JUNCTION     1.70     2.04     8.49     0  07:50        2.04
  YS02001649           JUNCTION     1.76     2.05     8.44     0  02:39        2.05
  YS02001757           JUNCTION     1.88     2.18     8.44     0  02:58        2.17
  YS02001895           JUNCTION     0.50     1.56     8.31     0  03:00        1.56
  YS02001625           JUNCTION     1.56     1.78     8.38     0  02:34        1.78
  YS02163301           JUNCTION     1.64     1.94     8.46     0  07:50        1.94
  YS02163601           JUNCTION     1.75     2.08     8.48     0  07:50        2.08
  YS02164001           JUNCTION     1.69     2.01     8.47     0  07:50        2.01
  YS02001647           JUNCTION     1.54     1.80     8.41     0  02:46        1.79
  YSB1154              JUNCTION     0.26     0.47     9.52     0  03:01        0.47
  YSB6556              JUNCTION     0.15     0.35     9.52     0  03:01        0.35
  YSB1174              JUNCTION     0.21     0.41     9.52     0  03:01        0.41
  YSB1171              JUNCTION     0.41     0.62     9.52     0  03:01        0.62
  YS02006553           JUNCTION     0.93     1.97     8.25     0  02:58        1.96
  YS02006561           JUNCTION     0.30     1.06     7.72     0  02:59        1.05
  YS02006556           JUNCTION     0.90     1.92     8.23     0  02:59        1.92
  YS02006558           JUNCTION     0.94     1.96     8.23     0  02:58        1.96
  YS02001783           JUNCTION     0.50     1.71     7.85     0  02:23        1.43
  YS02001784           JUNCTION     0.52     1.56     7.63     0  02:23        1.38
  YS02001786           JUNCTION     0.46     1.29     7.32     0  02:23        1.22
  YS02001788           JUNCTION     0.38     1.11     7.08     0  02:23        1.08
  YS02001790           JUNCTION     0.48     1.73     7.38     0  02:22        1.24
  YS02001791           JUNCTION     0.43     1.48     6.95     0  02:21        1.23
  YS02001793           JUNCTION     0.56     1.86     6.69     0  02:23        1.80
  WSC                  OUTFALL      0.33     0.43     1.10     0  03:09        0.43
  JK-storage           STORAGE      2.43     5.80     6.60     0  02:22        5.80
  CC-storage           STORAGE      1.14     1.44     8.44     0  03:07        1.44
  XR-storage           STORAGE      6.31     7.72     5.72     0  02:55        7.72
  
  
  *******************
  Node Inflow Summary
  *******************
  
  -------------------------------------------------------------------------------------------------
                                  Maximum  Maximum                  Lateral       Total        Flow
                                  Lateral    Total  Time of Max      Inflow      Inflow     Balance
                                   Inflow   Inflow   Occurrence      Volume      Volume       Error
  Node                 Type           LPS      LPS  days hr:min    10^6 ltr    10^6 ltr     Percent
  -------------------------------------------------------------------------------------------------
  WS02001211           JUNCTION      7.35   389.67     0  04:30       0.207        10.1       0.393
  WS02001212           JUNCTION      0.00   391.97     0  04:30           0          10       0.234
  WS02001213           JUNCTION      0.00   394.27     0  04:30           0          10       0.272
  WS02003069           JUNCTION      0.32  1116.57     0  03:07     0.00902        18.2       0.164
  WS02003072           JUNCTION      0.00  1116.47     0  03:07           0        18.2       0.202
  WS02003073           JUNCTION      1.82  1118.22     0  03:08      0.0514        18.2       0.225
  WS02003060           JUNCTION     16.53  1116.16     0  03:06       0.466        18.2       0.156
  WS02003066           JUNCTION      0.00   716.48     0  03:06           0        7.79       0.045
  WS02003059           JUNCTION      0.00   398.03     0  04:30           0          10       0.382
  WS02003067           JUNCTION      0.00   716.30     0  03:05           0         7.8       0.099
  WS02004401           JUNCTION      0.00   717.71     0  03:04           0           8       0.232
  WS02004402           JUNCTION      0.00   717.76     0  03:04           0        7.98       0.221
  WS02004403           JUNCTION      0.00   717.83     0  03:04           0        7.96       0.204
  WS02004404           JUNCTION      0.16   718.03     0  03:04     0.00457        7.95       0.157
  WS02004406           JUNCTION      0.00   718.14     0  03:04           0        7.92       0.384
  WS02004409           JUNCTION      0.00   718.08     0  03:04           0        7.88       0.157
  WS02004410           JUNCTION      0.00   717.30     0  03:04           0        7.87       0.182
  WS02004411           JUNCTION      0.00   716.72     0  03:05           0        7.86       0.190
  WS02004412           JUNCTION      0.00   716.52     0  03:05           0        7.84       0.211
  WS02004413           JUNCTION      0.00   716.32     0  03:05           0        7.83       0.324
  WS02004405           JUNCTION      0.04   718.10     0  03:04     0.00107        7.94       0.235
  WS02006109           JUNCTION      1.23   706.77     0  03:02      0.0347        8.03       0.207
  WS02006110           JUNCTION      0.00   706.60     0  03:02           0        8.01       0.209
  WS02006111           JUNCTION      0.00   724.21     0  03:00           0        7.99       0.043
  WS02006112           JUNCTION     16.72   718.90     0  03:03      0.0747        8.06       0.348
  WS02006113           JUNCTION      0.00   706.55     0  03:02           0        7.99       0.103
  WS02006115           JUNCTION      0.00   719.05     0  03:03           0        8.03       0.212
  WS02006116           JUNCTION      0.00   717.56     0  03:03           0        8.01       0.181
  WS02006230           JUNCTION     10.28   533.68     0  06:31        0.29        5.86       0.217
  WS02006231           JUNCTION      0.00   523.13     0  06:31           0        5.58       0.130
  WS02006232           JUNCTION      0.00   523.18     0  06:31           0        5.59       0.276
  WS02006234           JUNCTION      0.00   523.80     0  06:31           0         5.6       0.066
  WS02006235           JUNCTION      0.00   524.35     0  06:31           0        5.72       0.217
  WS02006238           JUNCTION      0.00   329.58     0  06:31           0        2.35       0.259
  WS02006240           JUNCTION      0.00   328.59     0  06:31           0        2.27       0.473
  WS02006242           JUNCTION      0.00   328.21     0  06:31           0        2.24       0.596
  WS02006243           JUNCTION      0.00   327.87     0  06:31           0        2.21       0.280
  WS02006245           JUNCTION      0.00   328.71     0  06:31           0        2.21       0.508
  WS02006247           JUNCTION      0.00   329.37     0  06:31           0        2.21       0.317
  WS02006248           JUNCTION      0.00   350.90     0  04:00           0        2.21       0.153
  WS02006249           JUNCTION      0.00   431.52     0  04:02           0        2.27       0.462
  WS02006239           JUNCTION      0.00   328.65     0  06:31           0         2.3       0.201
  WS02006251           JUNCTION      0.08   431.64     0  04:02     0.00217        2.32       0.340
  WS02006252           JUNCTION      0.00   400.00     0  04:00           0        1.86       0.026
  WS02006253           JUNCTION      1.99   159.35     0  03:29     0.00928       0.463       0.817
  WS02006256           JUNCTION      0.00   983.00     0  02:40           0        9.63       0.003
  WS02004138           JUNCTION      0.00   380.00     0  00:00           0        9.92       0.064
  WS02004139           JUNCTION      0.32   395.85     0  00:00     0.00905        9.92       0.452
  WS02004407           JUNCTION      0.00   718.20     0  03:04           0        7.89       0.073
  WS02006228           JUNCTION      0.00   705.46     0  03:02           0        8.01       0.155
  WS02006229           JUNCTION      0.00   705.40     0  03:02           0        8.02       0.178
  WS02006280           JUNCTION      0.00   413.62     0  03:02           0        2.17       0.003
  WS02006284           JUNCTION      0.10   413.57     0  03:02      0.0027        2.17       0.041
  WS02006287           JUNCTION      0.00   413.22     0  03:01           0        2.17       0.034
  WSF200               JUNCTION      0.00   716.55     0  03:06           0        7.79       0.040
  HS02004901           JUNCTION     20.36    20.36     0  03:01      0.0902      0.0904       1.991
  HS02004881           JUNCTION      7.95    84.19     0  03:01      0.0378        0.41       0.076
  HS02004876           JUNCTION     14.96    76.75     0  03:01      0.0728       0.373       0.148
  HS02004870           JUNCTION     14.89    62.15     0  03:01      0.0716         0.3       0.038
  HS02004862           JUNCTION     15.28    47.68     0  03:01      0.0788       0.229       0.076
  HS02004856           JUNCTION     11.18    32.72     0  03:01      0.0539       0.152       0.961
  HS02004852           JUNCTION      0.00    21.94     0  03:01           0      0.0979       0.059
  HS02004848           JUNCTION     34.61    34.61     0  03:01       0.174       0.174       0.029
  HS02004842           JUNCTION      0.00    12.41     0  03:01           0      0.0895      16.997
  HS02004837           JUNCTION     31.84    43.95     0  03:01       0.303        0.38       0.215
  HS02004830           JUNCTION      0.15    43.86     0  03:01     0.00423        0.37       0.334
  HS02004824           JUNCTION     42.39    85.90     0  03:01       0.225       0.594       0.092
  HS02004817           JUNCTION      0.60    86.28     0  03:01      0.0169        0.61       2.809
  HS02004807           JUNCTION     27.35   112.31     0  03:01       0.131       0.726       0.605
  HS02004802           JUNCTION      0.00   111.37     0  03:01           0       0.723       0.549
  HS02004799           JUNCTION     22.08   258.93     0  03:01       0.107        1.24       0.223
  HS02004792           JUNCTION    102.90   237.98     0  03:01        0.47        1.14       0.037
  HS02004788           JUNCTION     34.16   135.94     0  03:01       0.199       0.669       0.059
  HS02004785           JUNCTION      0.15   103.52     0  03:01     0.00423       0.471       0.106
  HS02004777           JUNCTION      0.03   104.16     0  03:01    0.000846       0.472       1.115
  HS02004770           JUNCTION     85.35   105.10     0  03:01       0.385       0.473       0.660
  HS02004480           JUNCTION      0.00   302.45     0  03:01           0        1.46       0.075
  HS02004479           JUNCTION      0.00    44.90     0  03:02           0       0.232       0.318
  HS02004478           JUNCTION      0.00   413.09     0  03:01           0        2.17       0.013
  YS02001745           JUNCTION    336.84   336.84     0  03:01        2.69        2.69       0.414
  YS02001748           JUNCTION      0.04   493.14     0  02:28     0.00127        2.68       0.809
  YS02001751           JUNCTION      0.01   342.20     0  03:01     0.00031        2.65       0.893
  YS02001754           JUNCTION      0.26   341.54     0  03:01     0.00733        2.64       0.947
  YS02001762           JUNCTION      0.00   290.57     0  02:38           0        1.97       1.096
  YS02001765           JUNCTION      0.00   290.02     0  02:38           0        1.97       1.265
  YS02001767           JUNCTION      0.54   290.84     0  02:38      0.0151        1.99       1.824
  YS02001770           JUNCTION    415.94   622.14     0  03:09        3.01        3.59       0.886
  YS02001774           JUNCTION      0.00   622.69     0  03:08           0        2.15       1.199
  YS02001779           JUNCTION      0.01   622.97     0  03:08    0.000141        2.12       0.734
  YS02001882           JUNCTION      0.00    21.94     0  02:27           0      0.0161      16.177
  YS02001884           JUNCTION      0.00    49.71     0  02:25           0      0.0534      13.001
  YS02001759           JUNCTION    399.49   571.17     0  02:39        2.78        4.14       0.556
  YS02001887           JUNCTION    494.68   495.70     0  03:01        3.19        3.23       0.260
  YS02001890           JUNCTION      0.00   495.24     0  03:01           0        3.18       0.290
  YS02001898           JUNCTION      0.00   495.09     0  03:01           0        3.16       0.098
  YS02001901           JUNCTION      0.00   495.18     0  03:01           0        3.16       0.215
  YS02001904           JUNCTION      0.00   495.36     0  03:01           0        3.16       0.194
  YS02001907           JUNCTION      0.00   950.34     0  03:00           0        7.02       0.347
  YS02001910           JUNCTION      0.00   455.92     0  03:01           0        3.87       0.304
  YS02001915           JUNCTION    296.36   455.56     0  03:01        2.25        3.89       0.158
  YS02001918           JUNCTION      0.00   208.19     0  03:30           0        1.64       0.080
  YS02001619           JUNCTION    290.53   290.53     0  03:01        2.24        2.24       0.548
  YS02001629           JUNCTION      0.00   204.61     0  02:17           0        1.69       1.726
  YS02001641           JUNCTION      0.00   398.57     0  02:35           0        4.25       0.496
  YS02001644           JUNCTION    321.01  1398.85     0  03:01        2.59          11       0.245
  YS02001652           JUNCTION      0.00   372.26     0  02:59           0        2.34       1.030
  YS02001655           JUNCTION      0.15   372.03     0  02:17     0.00434        2.37       1.035
  YS02001920           JUNCTION      2.87   185.86     0  03:30      0.0809        1.64       0.162
  YS02001923           JUNCTION      0.04   178.99     0  02:48     0.00106        1.55       0.056
  YS02001926           JUNCTION      0.05   159.22     0  03:00     0.00147        1.56       0.209
  YS02001929           JUNCTION    151.13   151.13     0  03:01        1.56        1.56       0.038
  YS02001658           JUNCTION      0.00   619.64     0  02:23           0         2.4       0.900
  YS02001661           JUNCTION      0.00   617.49     0  02:40           0        2.61      -0.154
  YS02001664           JUNCTION    361.21   361.21     0  03:01        2.38         2.6       0.241
  YS02001622           JUNCTION      0.00   291.26     0  03:01           0        2.22       1.450
  YS02001633           JUNCTION    326.74   397.48     0  02:35        2.66        4.31       0.746
  YS02001649           JUNCTION      0.00   825.11     0  02:35           0        6.41       0.589
  YS02001757           JUNCTION      0.00  1576.13     0  02:35           0        8.64       1.080
  YS02001895           JUNCTION      0.00   495.38     0  03:01           0        3.17       0.164
  YS02001625           JUNCTION      0.00   290.85     0  03:01           0        2.19       1.803
  YS02163301           JUNCTION      0.00   202.03     0  02:26           0        1.67       1.465
  YS02163601           JUNCTION      0.11   397.93     0  02:35      0.0031        4.27       0.710
  YS02164001           JUNCTION      0.00   398.18     0  02:35           0        4.25       0.467
  YS02001647           JUNCTION      0.00   734.28     0  03:10           0        5.67       0.502
  YSB1154              JUNCTION     26.18    26.18     0  03:01       0.129        0.13       1.131
  YSB6556              JUNCTION      0.00    25.82     0  03:01           0        0.13       0.969
  YSB1174              JUNCTION     20.52    20.52     0  03:01      0.0948      0.0953       1.369
  YSB1171              JUNCTION      0.00    45.30     0  03:01           0       0.231       2.821
  YS02006553           JUNCTION      0.00   703.44     0  03:31           0        6.59       0.231
  YS02006561           JUNCTION      0.00  1019.54     0  02:46           0        9.47       0.005
  YS02006556           JUNCTION      0.00   704.31     0  03:31           0         6.6       0.172
  YS02006558           JUNCTION    433.40  1019.85     0  02:46        2.93         9.5       0.054
  YS02001783           JUNCTION      0.00  1019.56     0  02:46           0        9.47       0.023
  YS02001784           JUNCTION      1.06  1020.48     0  02:46      0.0299         9.5       0.036
  YS02001786           JUNCTION      0.06  1020.59     0  02:46     0.00159         9.5       0.036
  YS02001788           JUNCTION      0.07  1020.56     0  02:46       0.002         9.5       0.021
  YS02001790           JUNCTION      0.15  1020.82     0  02:46     0.00437         9.5       0.005
  YS02001791           JUNCTION      0.00  1020.92     0  02:46           0         9.5       0.015
  YS02001793           JUNCTION      0.00  1021.20     0  02:46           0         9.5      -0.028
  WSC                  OUTFALL       0.00  1118.18     0  03:09           0        18.1       0.000
  JK-storage           STORAGE       0.00  1020.97     0  02:46           0        9.65     -10.503
  CC-storage           STORAGE       0.00  1576.40     0  02:35           0        5.93       1.095
  XR-storage           STORAGE     844.76   844.76     0  03:01        11.8        12.4      -0.002
  
  
  **********************
  Node Surcharge Summary
  **********************
  
  Surcharging occurs when water rises above the top of the highest conduit.
  ---------------------------------------------------------------------
                                               Max. Height   Min. Depth
                                   Hours       Above Crown    Below Rim
  Node                 Type      Surcharged         Meters       Meters
  ---------------------------------------------------------------------
  WS02004401           JUNCTION        0.14          0.028        1.632
  WS02004402           JUNCTION        0.20          0.038        1.702
  WS02004403           JUNCTION        0.21          0.037        1.993
  WS02004404           JUNCTION        0.48          0.100        2.680
  WS02004406           JUNCTION        0.39          0.059        2.391
  WS02004405           JUNCTION        0.44          0.081        2.719
  WS02006109           JUNCTION        2.65          0.324        1.496
  WS02006110           JUNCTION        1.12          0.119        1.731
  WS02006112           JUNCTION        1.51          0.264        1.416
  WS02006230           JUNCTION        0.77          0.167        1.403
  WS02006231           JUNCTION        1.01          0.216        1.314
  WS02006232           JUNCTION        2.35          0.412        1.068
  WS02006234           JUNCTION        1.43          0.390        0.850
  WS02006235           JUNCTION        1.73          0.487        0.803
  WS02006238           JUNCTION        1.80          0.503        0.927
  WS02006240           JUNCTION        1.07          0.449        0.941
  WS02006242           JUNCTION        1.12          0.504        0.316
  WS02006243           JUNCTION        0.66          0.428        0.342
  WS02006245           JUNCTION        0.54          0.412        0.438
  WS02006247           JUNCTION        0.53          0.430        0.330
  WS02006248           JUNCTION        0.47          0.365        0.015
  WS02006249           JUNCTION        0.48          0.390        0.000
  WS02006239           JUNCTION        1.34          0.461        0.829
  WS02006251           JUNCTION        0.24          0.306        0.874
  WS02006252           JUNCTION        0.62          0.479        0.621
  WS02006253           JUNCTION        0.26          0.447        2.033
  WS02006256           JUNCTION        6.88          2.050        0.000
  WS02006228           JUNCTION        2.57          0.402        1.798
  YS02001748           JUNCTION        5.30          0.295        0.895
  YS02001751           JUNCTION        5.49          0.567        0.633
  YS02001754           JUNCTION        5.69          0.788        0.362
  YS02001762           JUNCTION        5.87          1.047        0.103
  YS02001765           JUNCTION        5.84          0.996        0.104
  YS02001767           JUNCTION        5.81          0.946        0.084
  YS02001770           JUNCTION        5.80          0.899        0.021
  YS02001774           JUNCTION        5.86          0.985        0.065
  YS02001779           JUNCTION        5.67          0.680        0.000
  YS02001882           JUNCTION        0.94          0.620        0.210
  YS02001884           JUNCTION        0.97          0.660        0.210
  YS02001759           JUNCTION        5.89          1.083        0.127
  YS02001887           JUNCTION        1.04          0.746        0.204
  YS02001890           JUNCTION        1.07          0.760        0.000
  YS02001898           JUNCTION        0.90          0.528        0.212
  YS02001901           JUNCTION        1.01          0.674        0.196
  YS02001904           JUNCTION        0.99          0.636        0.214
  YS02001907           JUNCTION        1.74          0.950        0.000
  YS02001910           JUNCTION        1.12          0.771        0.329
  YS02001915           JUNCTION        0.93          0.578        0.422
  YS02001918           JUNCTION        0.71          0.240        0.570
  YS02001619           JUNCTION        5.47          0.590        0.020
  YS02001629           JUNCTION        5.48          0.470        0.000
  YS02001641           JUNCTION        5.85          0.992        0.108
  YS02001644           JUNCTION        5.85          0.920        0.000
  YS02001652           JUNCTION        5.73          1.120        0.010
  YS02001655           JUNCTION        5.50          1.042        0.158
  YS02001920           JUNCTION        0.75          0.308        0.832
  YS02001658           JUNCTION        5.33          1.141        0.159
  YS02001661           JUNCTION        0.13          1.151        0.239
  YS02001622           JUNCTION        5.50          0.583        0.037
  YS02001633           JUNCTION        5.83          1.016        0.044
  YS02001649           JUNCTION        5.88          1.050        0.000
  YS02001757           JUNCTION        5.97          1.180        0.030
  YS02001895           JUNCTION        0.91          0.561        0.189
  YS02001625           JUNCTION        5.76          0.780        0.000
  YS02163301           JUNCTION        5.81          0.945        0.085
  YS02163601           JUNCTION        5.87          1.080        0.000
  YS02164001           JUNCTION        5.83          1.012        0.088
  YS02001647           JUNCTION        5.75          0.800        0.100
  YS02006553           JUNCTION        1.86          0.966        0.224
  YS02006561           JUNCTION        0.76          0.263        0.887
  YS02006556           JUNCTION        1.36          0.880        0.470
  YS02006558           JUNCTION        1.32          0.861        0.539
  YS02001783           JUNCTION        1.24          0.910        0.690
  YS02001784           JUNCTION        1.22          0.760        0.730
  YS02001786           JUNCTION        1.16          0.493        0.937
  YS02001788           JUNCTION        1.11          0.306        1.174
  YS02001790           JUNCTION        1.86          0.933        0.224
  YS02001791           JUNCTION        1.95          0.676        1.244
  YS02001793           JUNCTION        2.19          0.856        1.744
  
  
  *********************
  Node Flooding Summary
  *********************
  
  Flooding refers to all water that overflows a node, whether it ponds or not.
  --------------------------------------------------------------------------
                                                             Total   Maximum
                                 Maximum   Time of Max       Flood    Ponded
                        Hours       Rate    Occurrence      Volume     Depth
  Node                 Flooded       LPS   days hr:min    10^6 ltr    Meters
  --------------------------------------------------------------------------
  WS02006249              0.22    122.15      0  03:30       0.052     0.000
  WS02006256              3.88    791.92      0  03:31       6.164     0.000
  YS02001779              3.03    622.89      0  03:07       2.100     0.000
  YS02001890              0.01      0.96      0  03:00       0.000     0.000
  YS02001907              0.55    400.92      0  03:01       0.415     0.000
  YS02001629              0.01      1.87      0  06:32       0.000     0.000
  YS02001644              4.68   1398.47      0  03:01       9.430     0.000
  YS02001649              0.02     29.68      0  02:42       0.000     0.000
  YS02001625              1.19    235.64      0  03:01       0.465     0.000
  YS02163601              0.01      0.14      0  07:50       0.000     0.000
  JK-storage              0.77    720.12      0  02:30       0.985     0.000
  XR-storage              3.05    464.75      0  03:01       1.875     0.000
  
  
  **********************
  Storage Volume Summary
  **********************
  
  --------------------------------------------------------------------------------------------------
                         Average     Avg  Evap Exfil       Maximum     Max    Time of Max    Maximum
                          Volume    Pcnt  Pcnt  Pcnt        Volume    Pcnt     Occurrence    Outflow
  Storage Unit           1000 m3    Full  Loss  Loss       1000 m3    Full    days hr:min        LPS
  --------------------------------------------------------------------------------------------------
  JK-storage               0.122      42     0     0         0.291     100       0  02:22     983.00
  CC-storage               3.184      20     0     0         4.000      25       0  03:07     400.00
  XR-storage               0.758      82     0     0         0.926     100       0  02:55     380.00
  
  
  ***********************
  Outfall Loading Summary
  ***********************
  
  ---------------------------------------------------------------------------------------------------------------------------------
                         Flow       Avg       Max       Total         Total         Total         Total         Total         Total
                         Freq      Flow      Flow      Volume           COD            SS            TN            TP         NH4-N
  Outfall Node           Pcnt       LPS       LPS    10^6 ltr            kg            kg            kg            kg            kg
  ---------------------------------------------------------------------------------------------------------------------------------
  WSC                   99.98    702.94   1118.18      18.134      2188.151      3726.536       148.381        17.638        90.253
  ---------------------------------------------------------------------------------------------------------------------------------
  System                99.98    702.94   1118.18      18.134      2188.151      3726.536       148.381        17.638        90.253
  
  
  ********************
  Link Flow Summary
  ********************
  
  -----------------------------------------------------------------------------
                                 Maximum  Time of Max   Maximum    Max/    Max/
                                  |Flow|   Occurrence   |Veloc|    Full    Full
  Link                 Type          LPS  days hr:min     m/sec    Flow   Depth
  -----------------------------------------------------------------------------
  WS02003066WSF200     CONDUIT    716.55     0  03:06      2.88    0.12    0.27
  WS02006287WS02006284 CONDUIT    413.47     0  03:02      2.04    0.19    0.30
  WS02006284WS02006280 CONDUIT    413.62     0  03:02      2.28    0.17    0.28
  WS02006280WS02006229 CONDUIT    413.66     0  03:02      3.68    0.09    0.20
  WS02006229WS02006228 CONDUIT    705.46     0  03:02      1.40    2.34    1.00
  WS02006256WS02006235 CONDUIT    288.92     0  00:00      4.23    3.06    1.00
  WS02006253WS02006251 CONDUIT    147.62     0  04:01      0.58    0.44    1.00
  WS02006252WS02006251 CONDUIT    402.92     0  04:02      3.21    1.48    1.00
  WS02006251WS02006249 CONDUIT    431.52     0  04:02      1.12    1.24    1.00
  WS02006249WS02006248 CONDUIT    350.90     0  04:00      1.09    1.92    1.00
  WS02006248WS02006247 CONDUIT    329.37     0  06:31      1.06    0.72    1.00
  WS02006247WS02006245 CONDUIT    328.71     0  06:31      1.02    2.61    1.00
  WS02006245WS02006243 CONDUIT    327.87     0  06:31      1.08    0.97    1.00
  WS02006243WS02006242 CONDUIT    328.21     0  06:31      0.92    0.70    1.00
  WS02006242WS02006240 CONDUIT    328.59     0  06:31      0.91    1.31    1.00
  WS02006240WS02006239 CONDUIT    328.65     0  06:31      0.93    1.03    1.00
  WS02006239WS02006238 CONDUIT    329.58     0  06:31      0.87    1.05    1.00
  WS02006238WS02006235 CONDUIT    329.18     0  06:31      1.45    0.73    1.00
  WS02006235WS02006234 CONDUIT    523.80     0  06:31      1.36    5.53    1.00
  WS02006234WS02006232 CONDUIT    523.18     0  06:31      1.39    1.06    1.00
  WS02006232WS02006231 CONDUIT    523.13     0  06:31      1.36    1.10    1.00
  WS02006231WS02006230 CONDUIT    523.40     0  06:31      1.39    7.94    1.00
  WS02006230WS02006229 CONDUIT    534.20     0  06:31      1.39   11.89    1.00
  WS02006228WS02006109 CONDUIT    705.54     0  03:02      1.40    3.08    1.00
  WS02006116WS02004401 CONDUIT    717.71     0  03:04      1.00    0.99    1.00
  WS02006115WS02006116 CONDUIT    717.56     0  03:03      1.02    0.92    0.96
  WS02006113WS02006111 CONDUIT    724.21     0  03:00      2.58    0.87    0.60
  WS02006112WS02006115 CONDUIT    719.05     0  03:03      0.92    0.42    0.97
  WS02006111WS02006112 CONDUIT    706.45     0  03:03      1.70    0.34    0.77
  WS02006110WS02006113 CONDUIT    706.55     0  03:02      1.60    0.64    0.83
  WS02006109WS02006110 CONDUIT    706.60     0  03:02      1.41    1.36    1.00
  WS02004411WS02004412 CONDUIT    716.52     0  03:05      1.07    1.02    0.79
  WS02004401WS02004402 CONDUIT    717.76     0  03:04      1.00    0.86    1.00
  WS02004413WS02003067 CONDUIT    716.30     0  03:05      1.31    0.31    0.66
  WS02004412WS02004413 CONDUIT    716.32     0  03:05      0.99    0.48    0.86
  WS02004410WS02004411 CONDUIT    716.72     0  03:05      1.07    0.98    0.79
  WS02004409WS02004410 CONDUIT    717.30     0  03:04      1.07    0.93    0.79
  WS02004407WS02004409 CONDUIT    718.08     0  03:04      1.57    0.25    0.57
  WS02004406WS02004407 CONDUIT    718.20     0  03:04      1.28    0.32    0.67
  WS02004405WS02004406 CONDUIT    718.14     0  03:04      1.10    1.42    1.00
  WS02004404WS02004405 CONDUIT    718.06     0  03:04      1.15    7.04    1.00
  WS02004403WS02004404 CONDUIT    717.87     0  03:04      0.98    0.52    1.00
  WS02004402WS02004403 CONDUIT    717.83     0  03:04      1.02    1.03    1.00
  WS02004139WS02001211 CONDUIT    382.33     0  04:30      0.90    0.48    0.61
  WS02004138WS02004139 CONDUIT    395.52     0  00:00      3.64    0.08    0.45
  WS02003067WS02003066 CONDUIT    716.48     0  03:06      1.42    0.23    0.46
  WS02001213WS02003059 CONDUIT    398.03     0  04:30      0.89    0.66    0.82
  WS02001212WS02001213 CONDUIT    394.27     0  04:30      1.32    0.61    0.51
  WS02001211WS02001212 CONDUIT    391.97     0  04:30      0.78    0.30    0.68
  WS02003072WS02003073 CONDUIT   1116.39     0  03:08      1.84    2.41    0.53
  WS02003069WS02003072 CONDUIT   1116.47     0  03:07      1.72    0.54    0.56
  WS02003060WS02003069 CONDUIT   1116.25     0  03:07      1.94    0.44    0.51
  WS02003059WS02003060 CONDUIT    403.28     0  04:29      0.95    0.26    0.71
  HS02004901HS02004770 CONDUIT     20.52     0  03:01      0.07    0.08    0.42
  HS02004876HS02004881 CONDUIT     76.55     0  03:01      0.95    0.81    0.12
  HS02004870HS02004876 CONDUIT     61.90     0  03:01      0.65    0.04    0.14
  HS02004842HS02004848 CONDUIT     12.41     0  03:01      0.06    0.01    0.31
  HS02004837HS02004842 CONDUIT     12.98     0  03:02      0.42    0.01    0.32
  HS02004830HS02004837 CONDUIT     43.71     0  03:01      0.57    0.04    0.11
  HS02004824HS02004830 CONDUIT     43.67     0  03:01      0.59    0.06    0.11
  HS02004817HS02004824 CONDUIT     85.68     0  03:01      0.26    0.04    0.48
  HS02004770HS02004777 CONDUIT    104.13     0  03:01      0.35    0.19    0.43
  HS02004799HS02004480 CONDUIT    258.30     0  03:01      0.83    0.33    0.44
  HS02004792HS02004799 CONDUIT    237.04     0  03:01      0.95    0.15    0.36
  HS02004788HS02004792 CONDUIT    135.43     0  03:01      1.06    0.09    0.18
  HS02004785HS02004788 CONDUIT    103.22     0  03:02      0.71    0.78    0.21
  HS02004777HS02004785 CONDUIT    103.37     0  03:01      0.42    0.13    0.35
  HS02004480HS02004478 CONDUIT    302.29     0  03:01      1.26    1.27    0.34
  HS02004479HS02004480 CONDUIT     46.29     0  03:02      0.32    0.04    0.43
  HS02004862HS02004870 CONDUIT     47.43     0  03:01      0.66    0.05    0.10
  HS02004848HS02004852 CONDUIT     21.94     0  03:01      0.45    0.02    0.07
  HS02004856HS02004862 CONDUIT     32.47     0  03:01      0.48    0.03    0.10
  HS02004852HS02004856 CONDUIT     21.85     0  03:02      0.25    0.02    0.13
  HS02004802HS02004478 CONDUIT    111.52     0  03:02      0.45    0.10    0.36
  HS02004478WS02006287 CONDUIT    413.22     0  03:01      1.75    0.12    0.26
  HS02004817HS02004807 CONDUIT     86.14     0  03:01      0.19    0.05    0.63
  HS02004807HS02004802 CONDUIT    111.37     0  03:01      0.38    0.21    0.42
  YS02001759YS02001757 CONDUIT    570.79     0  02:38      0.73    0.41    1.00
  YS02001762YS02001759 CONDUIT    290.43     0  02:38      0.37    0.33    1.00
  YS02001765YS02001762 CONDUIT    290.57     0  02:38      0.37    0.27    1.00
  YS02001770YS02001767 CONDUIT    290.30     0  02:38      0.37    1.15    1.00
  YS02001774YS02001770 CONDUIT    622.69     0  03:08      0.79    0.40    1.00
  YS02001779YS02001774 CONDUIT    622.97     0  03:08      0.79    0.31    1.00
  YS02001649YS02001757 CONDUIT    825.17     0  02:35      1.05    0.50    1.00
  YS02001767YS02001765 CONDUIT    290.02     0  02:38      0.37    0.36    1.00
  YS02006561YS02001783 CONDUIT   1019.56     0  02:46      2.14    0.53    1.00
  YS02001783YS02001784 CONDUIT   1019.42     0  02:46      2.03    1.41    1.00
  YS02001784YS02001785 CONDUIT   1020.54     0  02:46      2.03    2.37    1.00
  YS02001788YS02001790 CONDUIT   1020.67     0  02:46      2.44    0.75    1.00
  YS02001790YS02001791 CONDUIT   1020.92     0  02:46      2.92    1.11    1.00
  YS02001791YS02001793 CONDUIT   1021.20     0  02:46      5.75    0.44    1.00
  YS02001910YS02001907 CONDUIT    455.50     0  03:00      0.58    0.26    1.00
  YS02001786YS02001788 CONDUIT   1020.49     0  02:46      2.31    1.97    1.00
  YS02001915YS02001910 CONDUIT    455.92     0  03:01      0.59    0.23    1.00
  YS02001918YS02001915 CONDUIT    246.61     0  03:31      0.44    0.14    1.00
  YS02001923YS02001920 CONDUIT    182.99     0  03:30      0.72    0.08    1.00
  YS02001926YS02001923 CONDUIT    178.96     0  02:48      0.83    0.26    0.86
  YS02001929YS02001926 CONDUIT    159.17     0  03:00      0.89    0.08    0.75
  YS02001920YS02001918 CONDUIT    208.19     0  03:30      0.70    0.20    1.00
  YS02001629YS02163301 CONDUIT    202.03     0  02:26      0.26    0.25    1.00
  YS02001619YS02001622 CONDUIT    291.26     0  03:01      0.61    0.43    1.00
  YS02001622YS02001625 CONDUIT    290.85     0  03:01      0.37    0.16    1.00
  YS02001625YS02001629 CONDUIT    204.61     0  02:17      0.26    0.10    1.00
  YS02163301YS02001633 CONDUIT    202.50     0  02:27      0.26    0.19    1.00
  YS02163601YS02164001 CONDUIT    398.18     0  02:35      0.51    0.35    1.00
  YS02164001YS02001641 CONDUIT    398.57     0  02:35      0.51    0.54    1.00
  YS02001641YS02001644 CONDUIT    398.75     0  02:35      0.51    1.29    1.00
  YS02001647YS02001649 CONDUIT    734.28     0  03:10      0.93    0.39    1.00
  YS02006553YS02006556 CONDUIT    704.31     0  03:31      0.90    0.60    1.00
  YS02006556YS02006558 CONDUIT    704.93     0  03:31      0.90    0.56    1.00
  YSB6556YSB1171       CONDUIT     25.76     0  03:03      0.09    0.03    0.70
  YS02001907YS02006553 CONDUIT    703.44     0  03:31      0.78    0.83    1.00
  YS02006558YS02006561 CONDUIT   1019.54     0  02:46      3.61    2.25    1.00
  YS02001633YS02163601 CONDUIT    397.82     0  02:35      0.51    0.42    1.00
  YS02001644YS02001647 CONDUIT    734.80     0  03:10      0.94    0.43    1.00
  YS02001745YS02001748 CONDUIT    493.10     0  02:28      1.47    0.19    0.96
  YS02001748YS02001751 CONDUIT    342.19     0  03:01      1.06    0.17    1.00
  YS02001751YS02001754 CONDUIT    341.28     0  03:01      0.92    0.16    1.00
  YS02001754YS02001757 CONDUIT    342.16     0  03:01      0.44    0.14    1.00
  YS02001882YS02001884 CONDUIT     23.19     0  02:25      0.13    0.03    1.00
  YS02001884YS02001887 CONDUIT     49.71     0  02:25      0.09    0.07    1.00
  YS02001890YS02001895 CONDUIT    495.38     0  03:01      0.63    0.23    1.00
  YS02001895YS02001898 CONDUIT    495.09     0  03:01      0.63    0.86    1.00
  YS02001898YS02001901 CONDUIT    495.18     0  03:01      0.63    0.32    1.00
  YS02001901YS02001904 CONDUIT    495.36     0  03:01      0.63    0.77    1.00
  YS02001904YS02001907 CONDUIT    495.42     0  03:01      0.63    0.17    1.00
  YS02001887YS02001890 CONDUIT    495.24     0  03:01      0.63    0.85    1.00
  YS02001652YS02001649 CONDUIT    373.44     0  02:59      0.63    0.19    1.00
  YS02001655YS02001652 CONDUIT    372.26     0  02:59      0.98    0.18    1.00
  YS02001658YS02001655 CONDUIT    371.87     0  02:17      1.22    0.16    1.00
  YS02001661YS02001658 CONDUIT    619.64     0  02:23      1.55    0.24    1.00
  YS02001664YS02001661 CONDUIT    617.49     0  02:40      1.43    0.19    0.77
  YSB1154YSB6556       CONDUIT     25.82     0  03:01      0.17    0.05    0.59
  YSB1174YSB1171       CONDUIT     20.15     0  03:01      0.07    0.03    0.70
  YSB1171HS02004479    CONDUIT     44.90     0  03:02      0.54    0.03    0.55
  HS02004881HS02006253 CONDUIT     84.16     0  03:01      2.12    0.02    0.51
  YS02001793JiankangQianchi CONDUIT   1020.97     0  02:46     16.47    0.08    1.00
  YS02001757CaochengTiaoxuchi CONDUIT   1576.40     0  02:35      2.02    0.69    1.00
  WSF200WS02003060     CONDUIT    716.79     0  03:06      1.76    0.16    0.39
  1                    CONDUIT   1118.18     0  03:09      3.43    0.39    0.43
  CC-Pump-1            PUMP       200.00     0  04:00              1.00
  CC-Pump-2            PUMP       200.00     0  04:00              1.00
  JK-Pump-1            PUMP       300.00     0  00:00              1.00
  JK-Pump-2            PUMP       683.00     0  02:40              1.00
  XR-Pump-1            PUMP        95.00     0  00:00              1.00
  XR-Pump-2            PUMP        95.00     0  00:00              1.00
  XR-Pump-3            PUMP        95.00     0  00:00              1.00
  XR-Pump-4            PUMP        95.00     0  00:00              1.00
  
  
  ***************************
  Flow Classification Summary
  ***************************
  
  -------------------------------------------------------------------------------------
                      Adjusted    ---------- Fraction of Time in Flow Class ---------- 
                       /Actual         Up    Down  Sub   Sup   Up    Down  Norm  Inlet 
  Conduit               Length    Dry  Dry   Dry   Crit  Crit  Crit  Crit  Ltd   Ctrl  
  -------------------------------------------------------------------------------------
  WS02003066WSF200        1.00   0.01  0.02  0.00  0.00  0.97  0.00  0.00  0.67  0.00
  WS02006287WS02006284    1.00   0.04  0.02  0.00  0.59  0.36  0.00  0.00  0.62  0.00
  WS02006284WS02006280    1.00   0.05  0.00  0.00  0.00  0.00  0.00  0.95  0.00  0.00
  WS02006280WS02006229    1.00   0.05  0.00  0.00  0.00  0.00  0.00  0.95  0.00  0.00
  WS02006229WS02006228    1.00   0.00  0.00  0.00  0.99  0.00  0.00  0.00  0.00  0.00
  WS02006256WS02006235    1.00   0.00  0.00  0.00  1.00  0.00  0.00  0.00  0.00  0.00
  WS02006253WS02006251    1.00   0.02  0.02  0.00  0.95  0.00  0.01  0.00  0.00  0.00
  WS02006252WS02006251    1.00   0.27  0.00  0.00  0.04  0.00  0.68  0.00  0.00  0.00
  WS02006251WS02006249    1.00   0.00  0.00  0.00  1.00  0.00  0.00  0.00  0.32  0.00
  WS02006249WS02006248    1.00   0.00  0.01  0.00  0.85  0.00  0.14  0.00  0.00  0.00
  WS02006248WS02006247    1.00   0.01  0.00  0.00  0.99  0.00  0.00  0.00  0.23  0.00
  WS02006247WS02006245    1.00   0.01  0.00  0.00  0.99  0.00  0.00  0.01  0.00  0.00
  WS02006245WS02006243    1.00   0.00  0.00  0.00  0.93  0.00  0.00  0.07  0.00  0.00
  WS02006243WS02006242    1.00   0.00  0.00  0.00  1.00  0.00  0.00  0.00  0.30  0.00
  WS02006242WS02006240    1.00   0.00  0.00  0.00  0.99  0.00  0.01  0.00  0.00  0.00
  WS02006240WS02006239    1.00   0.00  0.00  0.00  0.93  0.00  0.00  0.07  0.01  0.00
  WS02006239WS02006238    1.00   0.00  0.00  0.00  1.00  0.00  0.00  0.00  0.12  0.00
  WS02006238WS02006235    1.00   0.00  0.00  0.00  1.00  0.00  0.00  0.00  0.00  0.00
  WS02006235WS02006234    1.00   0.00  0.00  0.00  0.95  0.00  0.05  0.00  0.00  0.00
  WS02006234WS02006232    1.00   0.00  0.00  0.00  1.00  0.00  0.00  0.00  0.08  0.00
  WS02006232WS02006231    1.00   0.00  0.00  0.00  1.00  0.00  0.00  0.00  0.00  0.00
  WS02006231WS02006230    1.00   0.00  0.00  0.00  0.56  0.00  0.43  0.00  0.00  0.00
  WS02006230WS02006229    1.00   0.00  0.00  0.00  0.99  0.00  0.00  0.01  0.00  0.00
  WS02006228WS02006109    1.00   0.00  0.00  0.00  1.00  0.00  0.00  0.00  0.00  0.00
  WS02006116WS02004401    1.00   0.01  0.00  0.00  0.99  0.00  0.00  0.00  0.00  0.00
  WS02006115WS02006116    1.00   0.01  0.00  0.00  0.99  0.00  0.00  0.00  0.00  0.00
  WS02006113WS02006111    1.00   0.01  0.00  0.00  0.00  0.99  0.00  0.00  0.20  0.00
  WS02006112WS02006115    1.00   0.01  0.00  0.00  0.99  0.00  0.00  0.00  0.00  0.00
  WS02006111WS02006112    1.00   0.01  0.00  0.00  0.99  0.00  0.00  0.00  0.93  0.00
  WS02006110WS02006113    1.00   0.00  0.00  0.00  0.99  0.00  0.00  0.00  0.00  0.00
  WS02006109WS02006110    1.00   0.00  0.00  0.00  0.99  0.00  0.00  0.00  0.00  0.00
  WS02004411WS02004412    1.00   0.02  0.00  0.00  0.98  0.00  0.00  0.00  0.00  0.00
  WS02004401WS02004402    1.00   0.01  0.00  0.00  0.99  0.00  0.00  0.00  0.00  0.00
  WS02004413WS02003067    1.00   0.02  0.01  0.00  0.00  0.00  0.97  0.00  0.00  0.00
  WS02004412WS02004413    1.00   0.02  0.00  0.00  0.98  0.00  0.00  0.00  0.01  0.00
  WS02004410WS02004411    1.00   0.02  0.00  0.00  0.98  0.00  0.00  0.00  0.00  0.00
  WS02004409WS02004410    1.00   0.02  0.00  0.00  0.98  0.00  0.00  0.00  0.02  0.00
  WS02004407WS02004409    1.00   0.02  0.00  0.00  0.98  0.00  0.00  0.00  0.95  0.00
  WS02004406WS02004407    1.00   0.00  0.02  0.00  0.98  0.00  0.00  0.00  0.00  0.00
  WS02004405WS02004406    1.00   0.00  0.00  0.00  1.00  0.00  0.00  0.00  0.00  0.00
  WS02004404WS02004405    1.00   0.00  0.00  0.00  1.00  0.00  0.00  0.00  0.00  0.00
  WS02004403WS02004404    1.00   0.00  0.01  0.00  0.99  0.00  0.00  0.00  0.00  0.00
  WS02004402WS02004403    1.00   0.01  0.00  0.00  0.99  0.00  0.00  0.00  0.00  0.00
  WS02004139WS02001211    1.00   0.00  0.00  0.00  1.00  0.00  0.00  0.00  0.00  0.00
  WS02004138WS02004139    1.00   0.00  0.00  0.00  1.00  0.00  0.00  0.00  1.00  0.00
  WS02003067WS02003066    1.00   0.03  0.00  0.00  0.97  0.00  0.00  0.00  0.00  0.00
  WS02001213WS02003059    1.00   0.00  0.00  0.00  1.00  0.00  0.00  0.00  0.00  0.00
  WS02001212WS02001213    1.00   0.00  0.00  0.00  0.93  0.00  0.07  0.00  0.00  0.00
  WS02001211WS02001212    1.00   0.00  0.00  0.00  1.00  0.00  0.00  0.00  0.00  0.00
  WS02003072WS02003073    1.00   0.00  0.00  0.00  0.00  0.00  0.00  1.00  0.00  0.00
  WS02003069WS02003072    1.00   0.00  0.00  0.00  1.00  0.00  0.00  0.00  0.09  0.00
  WS02003060WS02003069    1.00   0.00  0.00  0.00  0.99  0.01  0.00  0.00  0.07  0.00
  WS02003059WS02003060    1.00   0.00  0.00  0.00  1.00  0.00  0.00  0.00  0.01  0.00
  HS02004901HS02004770    1.00   0.04  0.00  0.00  0.96  0.00  0.00  0.00  0.00  0.00
  HS02004876HS02004881    1.00   0.01  0.00  0.00  0.92  0.07  0.00  0.00  0.00  0.00
  HS02004870HS02004876    1.00   0.00  0.00  0.00  0.99  0.00  0.00  0.00  0.95  0.00
  HS02004842HS02004848    1.00   0.00  0.04  0.00  0.96  0.00  0.00  0.00  0.55  0.00
  HS02004837HS02004842    1.00   0.00  0.00  0.00  1.00  0.00  0.00  0.00  0.11  0.00
  HS02004830HS02004837    1.00   0.00  0.00  0.00  1.00  0.00  0.00  0.00  0.99  0.00
  HS02004824HS02004830    1.00   0.00  0.00  0.00  1.00  0.00  0.00  0.00  0.00  0.00
  HS02004817HS02004824    1.00   0.00  0.00  0.00  1.00  0.00  0.00  0.00  1.00  0.00
  HS02004770HS02004777    1.00   0.00  0.04  0.00  0.96  0.00  0.00  0.00  0.02  0.00
  HS02004799HS02004480    1.00   0.00  0.02  0.00  0.95  0.00  0.03  0.00  0.00  0.00
  HS02004792HS02004799    1.00   0.00  0.00  0.00  0.99  0.01  0.00  0.00  0.98  0.00
  HS02004788HS02004792    1.00   0.00  0.00  0.00  1.00  0.00  0.00  0.00  0.98  0.00
  HS02004785HS02004788    1.00   0.00  0.00  0.00  1.00  0.00  0.00  0.00  0.00  0.00
  HS02004777HS02004785    1.00   0.00  0.00  0.00  1.00  0.00  0.00  0.00  0.12  0.00
  HS02004480HS02004478    1.00   0.04  0.00  0.00  0.67  0.00  0.00  0.29  0.00  0.00
  HS02004479HS02004480    1.00   0.02  0.00  0.00  0.98  0.00  0.00  0.00  0.11  0.00
  HS02004862HS02004870    1.00   0.00  0.00  0.00  1.00  0.00  0.00  0.00  0.03  0.00
  HS02004848HS02004852    1.00   0.04  0.00  0.00  0.96  0.00  0.00  0.00  0.62  0.00
  HS02004856HS02004862    1.00   0.00  0.05  0.00  0.95  0.00  0.00  0.00  0.83  0.00
  HS02004852HS02004856    1.00   0.04  0.00  0.00  0.95  0.00  0.00  0.00  0.85  0.00
  HS02004802HS02004478    1.00   0.04  0.00  0.00  0.95  0.00  0.00  0.00  0.02  0.00
  HS02004478WS02006287    1.00   0.05  0.00  0.00  0.75  0.20  0.00  0.00  0.64  0.00
  HS02004817HS02004807    1.00   0.00  0.04  0.00  0.96  0.00  0.00  0.00  0.01  0.00
  HS02004807HS02004802    1.00   0.04  0.00  0.00  0.95  0.00  0.00  0.00  0.00  0.00
  YS02001759YS02001757    1.00   0.00  0.00  0.00  1.00  0.00  0.00  0.00  0.16  0.00
  YS02001762YS02001759    1.00   0.00  0.00  0.00  1.00  0.00  0.00  0.00  0.03  0.00
  YS02001765YS02001762    1.00   0.00  0.00  0.00  1.00  0.00  0.00  0.00  0.13  0.00
  YS02001770YS02001767    1.00   0.00  0.00  0.00  1.00  0.00  0.00  0.00  0.00  0.00
  YS02001774YS02001770    1.00   0.00  0.04  0.00  0.96  0.00  0.00  0.00  0.03  0.00
  YS02001779YS02001774    1.00   0.00  0.00  0.00  1.00  0.00  0.00  0.00  0.18  0.00
  YS02001649YS02001757    1.00   0.00  0.00  0.00  1.00  0.00  0.00  0.00  0.16  0.00
  YS02001767YS02001765    1.00   0.00  0.00  0.00  1.00  0.00  0.00  0.00  0.00  0.00
  YS02006561YS02001783    1.00   0.06  0.00  0.00  0.29  0.65  0.00  0.00  0.48  0.00
  YS02001783YS02001784    1.00   0.00  0.06  0.00  0.94  0.00  0.00  0.00  0.00  0.00
  YS02001784YS02001785    1.00   0.00  0.00  0.00  1.00  0.00  0.00  0.00  0.17  0.00
  YS02001788YS02001790    1.00   0.00  0.00  0.00  0.35  0.65  0.00  0.00  0.40  0.00
  YS02001790YS02001791    1.00   0.00  0.00  0.00  0.30  0.70  0.00  0.00  0.50  0.00
  YS02001791YS02001793    1.00   0.00  0.00  0.00  0.31  0.69  0.00  0.00  0.02  0.00
  YS02001910YS02001907    1.00   0.00  0.00  0.00  0.99  0.00  0.00  0.01  0.12  0.00
  YS02001786YS02001788    1.00   0.00  0.00  0.00  0.34  0.66  0.00  0.00  0.00  0.00
  YS02001915YS02001910    1.00   0.00  0.00  0.00  0.99  0.01  0.00  0.00  0.15  0.00
  YS02001918YS02001915    1.00   0.00  0.00  0.00  0.99  0.01  0.00  0.00  0.55  0.00
  YS02001923YS02001920    1.00   0.00  0.00  0.00  1.00  0.00  0.00  0.00  0.84  0.00
  YS02001926YS02001923    1.00   0.00  0.03  0.00  0.15  0.00  0.83  0.00  0.00  0.00
  YS02001929YS02001926    1.00   0.00  0.04  0.00  0.96  0.00  0.00  0.00  0.76  0.00
  YS02001920YS02001918    1.00   0.00  0.00  0.00  1.00  0.00  0.00  0.00  0.00  0.00
  YS02001629YS02163301    1.00   0.05  0.00  0.00  0.95  0.00  0.00  0.00  0.00  0.00
  YS02001619YS02001622    1.00   0.04  0.00  0.00  0.96  0.00  0.00  0.00  0.00  0.00
  YS02001622YS02001625    1.00   0.04  0.00  0.00  0.96  0.00  0.00  0.00  0.04  0.00
  YS02001625YS02001629    1.00   0.04  0.02  0.00  0.92  0.00  0.02  0.00  0.00  0.00
  YS02163301YS02001633    1.00   0.00  0.05  0.00  0.95  0.00  0.00  0.00  0.00  0.00
  YS02163601YS02164001    1.00   0.00  0.03  0.00  0.97  0.00  0.00  0.00  0.00  0.00
  YS02164001YS02001641    1.00   0.00  0.03  0.00  0.97  0.00  0.00  0.00  0.06  0.00
  YS02001641YS02001644    1.00   0.00  0.00  0.00  1.00  0.00  0.00  0.00  0.00  0.00
  YS02001647YS02001649    1.00   0.00  0.05  0.00  0.94  0.00  0.00  0.00  0.01  0.00
  YS02006553YS02006556    1.00   0.01  0.00  0.00  0.99  0.00  0.00  0.00  0.03  0.00
  YS02006556YS02006558    1.00   0.00  0.00  0.00  1.00  0.00  0.00  0.00  0.00  0.00
  YSB6556YSB1171          1.00   0.02  0.02  0.00  0.96  0.00  0.00  0.00  0.00  0.00
  YS02001907YS02006553    1.00   0.00  0.01  0.00  0.99  0.00  0.00  0.00  0.00  0.00
  YS02006558YS02006561    1.00   0.06  0.00  0.00  0.15  0.79  0.00  0.00  0.51  0.00
  YS02001633YS02163601    1.00   0.00  0.00  0.00  1.00  0.00  0.00  0.00  0.15  0.00
  YS02001644YS02001647    1.00   0.00  0.06  0.00  0.94  0.00  0.00  0.00  0.00  0.00
  YS02001745YS02001748    1.00   0.00  0.00  0.00  0.90  0.01  0.00  0.10  0.04  0.00
  YS02001748YS02001751    1.00   0.00  0.00  0.00  0.97  0.03  0.00  0.00  0.15  0.00
  YS02001751YS02001754    1.00   0.00  0.00  0.00  0.93  0.00  0.00  0.06  0.02  0.00
  YS02001754YS02001757    1.00   0.00  0.00  0.00  1.00  0.00  0.00  0.00  0.18  0.00
  YS02001882YS02001884    1.00   0.05  0.00  0.00  0.95  0.00  0.00  0.00  0.00  0.00
  YS02001884YS02001887    1.00   0.02  0.02  0.00  0.96  0.00  0.00  0.00  0.00  0.00
  YS02001890YS02001895    1.00   0.00  0.05  0.00  0.95  0.00  0.00  0.00  0.00  0.00
  YS02001895YS02001898    1.00   0.05  0.00  0.00  0.94  0.00  0.01  0.00  0.00  0.00
  YS02001898YS02001901    1.00   0.05  0.00  0.00  0.95  0.00  0.00  0.00  0.01  0.00
  YS02001901YS02001904    1.00   0.05  0.00  0.00  0.95  0.00  0.00  0.00  0.00  0.00
  YS02001904YS02001907    1.00   0.00  0.05  0.00  0.95  0.00  0.00  0.00  0.00  0.00
  YS02001887YS02001890    1.00   0.00  0.00  0.00  0.99  0.00  0.01  0.00  0.00  0.00
  YS02001652YS02001649    1.00   0.00  0.00  0.00  1.00  0.00  0.00  0.00  0.16  0.00
  YS02001655YS02001652    1.00   0.00  0.00  0.00  0.93  0.00  0.00  0.06  0.02  0.00
  YS02001658YS02001655    1.00   0.00  0.05  0.00  0.92  0.03  0.00  0.00  0.08  0.00
  YS02001661YS02001658    1.00   0.05  0.00  0.00  0.90  0.06  0.00  0.00  0.08  0.00
  YS02001664YS02001661    1.00   0.04  0.00  0.00  0.90  0.05  0.00  0.00  0.19  0.00
  YSB1154YSB6556          1.00   0.04  0.00  0.00  0.96  0.00  0.00  0.00  0.01  0.00
  YSB1174YSB1171          1.00   0.02  0.01  0.00  0.97  0.00  0.00  0.00  0.00  0.00
  YSB1171HS02004479       1.00   0.02  0.00  0.00  0.98  0.00  0.00  0.00  0.10  0.00
  HS02004881HS02006253    1.00   0.02  0.00  0.00  0.45  0.04  0.00  0.49  0.30  0.00
  YS02001793JiankangQianchi    1.00   0.00  0.00  0.00  0.66  0.34  0.00  0.00  0.43  0.00
  YS02001757CaochengTiaoxuchi    1.00   0.00  0.08  0.00  0.92  0.00  0.00  0.00  0.00  0.00
  WSF200WS02003060        1.00   0.00  0.01  0.00  0.96  0.03  0.00  0.00  0.56  0.00
  1                       1.00   0.00  0.00  0.00  0.00  1.00  0.00  0.00  0.49  0.00
  
  
  *************************
  Conduit Surcharge Summary
  *************************
  
  ----------------------------------------------------------------------------
                                                           Hours        Hours 
                         --------- Hours Full --------   Above Full   Capacity
  Conduit                Both Ends  Upstream  Dnstream   Normal Flow   Limited
  ----------------------------------------------------------------------------
  WS02006229WS02006228        2.57      2.72      2.57      3.68         2.57
  WS02006256WS02006235        5.33      5.34      6.88      4.17         0.01
  WS02006253WS02006251        0.44      0.45      0.46      0.01         0.01
  WS02006252WS02006251        0.39      0.39      0.62      0.54         0.01
  WS02006251WS02006249        0.45      0.45      0.48      0.20         0.17
  WS02006249WS02006248        0.47      0.47      0.48      1.39         0.01
  WS02006248WS02006247        0.49      0.49      0.53      0.01         0.01
  WS02006247WS02006245        0.54      0.55      0.54      1.95         0.53
  WS02006245WS02006243        0.55      0.55      0.66      0.01         0.06
  WS02006243WS02006242        0.71      0.71      1.12      0.01         0.01
  WS02006242WS02006240        1.07      1.07      1.33      0.46         0.01
  WS02006240WS02006239        1.11      1.11      1.33      0.20         0.16
  WS02006239WS02006238        1.59      1.59      1.80      0.22         0.20
  WS02006238WS02006235        1.78      1.78      1.99      0.01         0.02
  WS02006235WS02006234        1.43      1.43      1.73      5.09         0.01
  WS02006234WS02006232        1.60      1.60      2.35      0.32         0.30
  WS02006232WS02006231        1.01      1.01      2.35      0.40         0.01
  WS02006231WS02006230        0.77      0.77      1.07      5.46         0.01
  WS02006230WS02006229        3.22      3.53      3.22      5.80         3.22
  WS02006228WS02006109        2.65      3.01      2.65      4.28         2.65
  WS02006116WS02004401        0.13      0.13      0.14      0.01         0.01
  WS02006112WS02006115        0.01      0.01      1.51      0.01         0.01
  WS02006111WS02006112        0.01      0.01      3.90      0.01         0.01
  WS02006110WS02006113        0.01      0.01      2.83      0.01         0.01
  WS02006109WS02006110        1.12      1.12      3.00      1.14         0.01
  WS02004411WS02004412        0.01      0.01      0.01      0.09         0.01
[...]
  YS02001765YS02001762        5.84      5.84      5.87      0.01         0.01
  YS02001770YS02001767        5.81      5.81      5.81      0.37         0.68
  YS02001774YS02001770        5.80      5.80      5.86      0.01         0.01
  YS02001779YS02001774        5.67      5.67      5.86      0.01         0.01
  YS02001649YS02001757        5.88      5.88      5.97      0.01         0.01
  YS02001767YS02001765        5.81      5.81      5.84      0.01         0.01
  YS02006561YS02001783        0.76      0.76      1.24      0.01         0.01
  YS02001783YS02001784        1.22      1.24      1.22      1.30         1.11
  YS02001784YS02001785        1.16      1.22      1.16      2.39         1.16
  YS02001788YS02001790        1.11      1.11      1.86      0.01         0.01
  YS02001790YS02001791        1.86      1.86      1.95      0.92         0.90
  YS02001791YS02001793        1.94      1.94      2.27      0.01         0.01
  YS02001910YS02001907        1.12      1.12      1.74      0.01         0.01
  YS02001786YS02001788        1.11      1.16      1.11      1.94         1.11
  YS02001915YS02001910        0.93      0.93      1.12      0.01         0.01
  YS02001918YS02001915        0.71      0.71      0.93      0.01         0.01
  YS02001923YS02001920        0.54      0.54      0.75      0.01         0.01
  YS02001920YS02001918        0.71      0.71      0.75      0.01         0.01
  YS02001629YS02163301        5.80      5.80      5.81      0.01         0.01
  YS02001619YS02001622        5.47      5.47      5.50      0.01         0.01
  YS02001622YS02001625        5.50      5.50      5.76      0.01         0.01
  YS02001625YS02001629        5.48      5.48      5.76      0.01         0.01
  YS02163301YS02001633        5.81      5.81      5.84      0.01         0.01
  YS02163601YS02164001        5.83      5.83      5.87      0.01         0.01
  YS02164001YS02001641        5.83      5.83      5.85      0.01         0.03
  YS02001641YS02001644        5.85      5.85      5.85      1.53         1.70
  YS02001647YS02001649        5.75      5.75      5.88      0.01         0.01
  YS02006553YS02006556        1.36      1.36      1.86      0.01         0.01
  YS02006556YS02006558        1.56      1.56      1.96      0.01         0.01
  YS02001907YS02006553        2.42      2.42      2.67      0.01         0.01
  YS02006558YS02006561        0.95      1.32      0.95      2.24         0.95
  YS02001633YS02163601        5.83      5.83      5.87      0.01         0.01
  YS02001644YS02001647        5.75      5.75      5.85      0.01         0.01
  YS02001745YS02001748        0.01      0.01      5.30      0.01         0.01
  YS02001748YS02001751        5.35      5.35      5.49      0.01         0.01
  YS02001751YS02001754        5.49      5.49      5.69      0.01         0.01
  YS02001754YS02001757        5.74      5.74      5.97      0.01         0.01
  YS02001882YS02001884        0.94      0.94      0.97      0.01         0.01
  YS02001884YS02001887        1.02      1.02      1.04      0.01         0.01
  YS02001890YS02001895        0.91      0.91      1.14      0.01         0.01
  YS02001895YS02001898        0.90      0.90      0.91      0.01         0.01
  YS02001898YS02001901        0.92      0.92      1.01      0.01         0.01
  YS02001901YS02001904        0.99      0.99      1.01      0.01         0.01
  YS02001904YS02001907        0.99      0.99      1.90      0.01         0.01
  YS02001887YS02001890        1.07      1.07      1.10      0.01         0.01
  YS02001652YS02001649        5.76      5.76      5.88      0.01         0.01
  YS02001655YS02001652        5.50      5.50      5.73      0.01         0.01
  YS02001658YS02001655        5.33      5.33      5.50      0.01         0.01
  YS02001661YS02001658        0.11      0.11      5.33      0.01         0.01
  YS02001664YS02001661        0.01      0.01      1.00      0.01         0.01
  HS02004881HS02006253        0.01      0.01      0.26      0.01         0.01
  YS02001793JiankangQianchi        2.19      2.19      4.08      0.01         0.01
  YS02001757CaochengTiaoxuchi        5.21      5.21      5.97      0.01         0.01
  
  
  ***************
  Pumping Summary
  ***************
  
  ---------------------------------------------------------------------------------------------------------
                                                  Min       Avg       Max     Total     Power    % Time Off
                        Percent   Number of      Flow      Flow      Flow    Volume     Usage    Pump Curve
  Pump                 Utilized   Start-Ups       LPS       LPS       LPS  10^6 ltr     Kw-hr    Low   High
  ---------------------------------------------------------------------------------------------------------
  CC-Pump-1               38.28           7      0.00    137.06    200.00     1.380      1.09    0.0    0.0
  CC-Pump-2               14.89           3      0.00    105.35    200.00     0.480      0.55    0.0    0.0
  JK-Pump-1               57.44           5      0.00    219.71    300.00     3.530     55.34    0.0    0.0
  JK-Pump-2               51.05           4      0.00    418.40    683.00     6.101     83.98    0.0   96.9
  XR-Pump-1              100.00           1      0.00     94.44     95.00     2.622     26.79    0.0    0.0
  XR-Pump-2               97.88           2      0.00     93.65     95.00     2.508     24.36    0.0    0.0
  XR-Pump-3               95.75           3      0.00     91.87     95.00     2.394     22.15    0.0    0.0
  XR-Pump-4               95.75           3      0.00     91.87     95.00     2.394     22.15    0.0    0.0
  
  
  ***************************
  Link Pollutant Load Summary
  ***************************
  
  ------------------------------------------------------------------------------------------
                                 COD            SS            TN            TP         NH4-N
  Link                            kg            kg            kg            kg            kg
  ------------------------------------------------------------------------------------------
  WS02003066WSF200           649.210      1199.866        17.965         1.621         9.581
  WS02006287WS02006284       268.049       498.196         9.345         0.943         5.213
  WS02006284WS02006280       268.537       498.982         9.392         0.949         5.243
  WS02006280WS02006229       268.508       498.928         9.390         0.948         5.241
  WS02006229WS02006228       655.119      1210.842        17.706         1.574         9.388
  WS02006256WS02006235       201.226       370.387         4.390         0.340         2.215
  WS02006253WS02006251        51.311        98.934         1.134         0.084         0.561
  WS02006252WS02006251       156.821       283.572         3.280         0.237         1.612
  WS02006251WS02006249       200.842       369.396         4.274         0.313         2.108
  WS02006249WS02006248       195.397       359.486         4.161         0.305         2.052
  WS02006248WS02006247       195.216       359.188         4.157         0.304         2.050
  WS02006247WS02006245       194.837       358.495         4.149         0.304         2.046
  WS02006245WS02006243       194.401       357.745         4.139         0.303         2.041
  WS02006243WS02006242       194.782       358.401         4.150         0.304         2.047
  WS02006242WS02006240       195.500       359.636         4.167         0.305         2.055
  WS02006240WS02006239       197.108       362.479         4.208         0.308         2.077
  WS02006239WS02006238       199.931       367.278         4.295         0.317         2.124
  WS02006238WS02006235       201.545       369.950         4.342         0.321         2.150
  WS02006235WS02006234       390.903       719.563         8.424         0.635         4.203
  WS02006234WS02006232       390.357       718.541         8.418         0.635         4.201
  WS02006232WS02006231       389.422       716.863         8.397         0.633         4.191
  WS02006231WS02006230       388.645       715.490         8.381         0.632         4.183
  WS02006230WS02006229       387.687       713.804         8.355         0.630         4.169
  WS02006228WS02006109       653.991      1208.820        17.673         1.571         9.371
  WS02006116WS02004401       663.305      1224.886        18.388         1.660         9.811
  WS02006115WS02006116       664.869      1227.657        18.435         1.665         9.837
  WS02006113WS02006111       659.177      1216.556        18.379         1.662         9.820
  WS02006112WS02006115       666.342      1230.235        18.489         1.670         9.867
  WS02006111WS02006112       658.501      1215.367        18.357         1.660         9.808
  WS02006110WS02006113       659.922      1217.871        18.407         1.665         9.836
  WS02006109WS02006110       661.358      1220.378        18.464         1.671         9.868
  WS02004411WS02004412       652.549      1205.728        18.093         1.635         9.654
  WS02004401WS02004402       661.727      1222.120        18.331         1.655         9.779
  WS02004413WS02003067       649.726      1200.801        17.977         1.622         9.588
  WS02004412WS02004413       651.328      1203.580        18.049         1.630         9.630
  WS02004410WS02004411       653.545      1207.488        18.127         1.638         9.673
  WS02004409WS02004410       654.609      1209.358        18.167         1.642         9.696
  WS02004407WS02004409       655.465      1210.878        18.194         1.645         9.711
  WS02004406WS02004407       655.701      1211.320        18.196         1.645         9.712
  WS02004405WS02004406       657.579      1214.594        18.275         1.653         9.757
  WS02004404WS02004405       659.057      1217.257        18.303         1.655         9.770
  WS02004403WS02004404       658.860      1217.087        18.229         1.645         9.722
  WS02004402WS02004403       660.216      1219.457        18.281         1.650         9.751
  WS02004139WS02001211      1399.767      2306.125       116.406        14.255        71.887
  WS02004138WS02004139      1406.040      2316.492       116.910        14.317        72.197
  WS02003067WS02003066       649.394      1200.193        17.971         1.622         9.585
  WS02001213WS02003059      1433.191      2358.894       119.825        14.686        74.033
  WS02001212WS02001213      1442.028      2373.415       120.561        14.776        74.488
  WS02001211WS02001212      1444.086      2376.760       120.743        14.799        74.601
  WS02003072WS02003073      2182.508      3718.093       147.670        17.547        89.802
  WS02003069WS02003072      2187.613      3726.390       148.113        17.602        90.077
  WS02003060WS02003069      2190.334      3730.980       148.299        17.624        90.190
  WS02003059WS02003060      1430.379      2354.190       119.616        14.661        73.905
  HS02004901HS02004770        10.270        19.476         0.195         0.015         0.091
  HS02004876HS02004881        37.319        72.581         0.843         0.062         0.416
  HS02004870HS02004876        28.161        54.628         0.678         0.051         0.338
  HS02004842HS02004848         5.467        10.276         0.115         0.008         0.053
  HS02004837HS02004842        10.072        17.582         0.584         0.067         0.347
  HS02004830HS02004837        65.638       112.703         4.556         0.546         2.785
  HS02004824HS02004830        66.389       113.905         4.628         0.555         2.829
  HS02004817HS02004824        88.205       156.973         5.083         0.584         3.051
  HS02004770HS02004777        39.295        75.464         0.819         0.055         0.377
  HS02004799HS02004480       131.407       245.365         3.680         0.335         1.932
  HS02004792HS02004799       119.083       220.657         3.496         0.327         1.853
  HS02004788HS02004792        68.394       126.854         2.388         0.235         1.309
  HS02004785HS02004788        40.732        77.759         0.969         0.074         0.471
  HS02004777HS02004785        40.058        76.665         0.909         0.067         0.434
  HS02004480HS02004478       165.950       312.590         4.243         0.375         2.196
  HS02004479HS02004480        38.146        72.976         0.884         0.079         0.462
  HS02004862HS02004870        21.016        40.118         0.536         0.043         0.270
  HS02004848HS02004852         8.057        15.279         0.167         0.011         0.077
  HS02004856HS02004862        14.072        27.341         0.284         0.019         0.133
  HS02004852HS02004856         8.064        15.290         0.167         0.011         0.077
  HS02004802HS02004478       102.884       186.886         5.162         0.575         3.055
  HS02004478WS02006287       268.250       498.532         9.363         0.945         5.224
  HS02004817HS02004807        86.887       154.861         4.956         0.568         2.972
  HS02004807HS02004802       103.111       187.240         5.194         0.580         3.075
  YS02001759YS02001757       293.429       531.790         5.914         0.410         2.893
  YS02001762YS02001759       168.515       308.446         3.539         0.249         1.749
  YS02001765YS02001762       169.505       311.023         3.581         0.253         1.772
  YS02001770YS02001767       170.857       315.355         3.443         0.230         1.675
  YS02001774YS02001770       220.735       421.492         4.291         0.285         2.076
  YS02001779YS02001774       220.177       420.362         4.387         0.299         2.142
  YS02001649YS02001757       366.957       657.416         7.456         0.511         3.595
  YS02001767YS02001765       170.902       314.227         3.627         0.257         1.798
  YS02006561YS02001783       940.015      1724.311        19.900         1.493         9.929
  YS02001783YS02001784       939.909      1724.154        19.896         1.492         9.927
  YS02001784YS02001785       947.255      1735.927        20.609         1.582        10.373
  YS02001788YS02001790       947.868      1736.934        20.681         1.591        10.419
  YS02001790YS02001791       948.988      1738.761        20.783         1.604        10.483
  YS02001791YS02001793       948.871      1738.576        20.777         1.603        10.479
  YS02001910YS02001907       330.185       599.353         8.228         0.641         4.250
  YS02001786YS02001788       947.443      1736.236        20.636         1.585        10.391
  YS02001915YS02001910       330.256       599.456         8.184         0.635         4.221
  YS02001918YS02001915       157.663       273.693         4.606         0.429         2.509
  YS02001923YS02001920       136.685       239.844         2.625         0.183         1.273
  YS02001926YS02001923       136.394       239.400         2.586         0.178         1.248
  YS02001929YS02001926       136.167       239.023         2.555         0.174         1.228
  YS02001920YS02001918       156.752       271.949         4.559         0.424         2.481
  YS02001629YS02163301       103.519       183.427         2.171         0.140         1.012
  YS02001619YS02001622       146.401       262.943         3.031         0.197         1.414
  YS02001622YS02001625       145.246       261.119         3.003         0.195         1.401
  YS02001625YS02001629       104.606       185.225         2.195         0.142         1.023
  YS02163301YS02001633       103.240       182.958         2.164         0.140         1.009
  YS02163601YS02164001       362.057       646.238         7.116         0.502         3.404
  YS02164001YS02001641       361.597       645.466         7.097         0.501         3.393
  YS02001641YS02001644       361.855       645.830         7.096         0.500         3.392
  YS02001647YS02001649       431.049       778.673         8.680         0.598         4.162
  YS02006553YS02006556       661.443      1207.787        14.301         1.099         7.210
  YS02006556YS02006558       661.426      1207.747        14.269         1.095         7.189
  YSB6556YSB1171              21.953        42.198         0.451         0.038         0.229
  YS02001907YS02006553       661.501      1207.917        14.313         1.101         7.219
  YS02006558YS02006561       939.986      1724.244        19.899         1.492         9.929
  YS02001633YS02163601       362.753       647.315         7.096         0.498         3.387
  YS02001644YS02001647       436.218       788.023         8.756         0.603         4.195
  YS02001745YS02001748       207.971       383.078         4.535         0.306         2.240
  YS02001748YS02001751       207.325       381.612         4.660         0.325         2.326
  YS02001751YS02001754       206.452       380.177         4.651         0.325         2.324
  YS02001754YS02001757       207.227       381.348         4.816         0.348         2.430
  YS02001882YS02001884         2.455         4.216         0.050         0.004         0.025
  YS02001884YS02001887         6.919        12.237         0.135         0.010         0.067
  YS02001890YS02001895       389.523       720.755         7.190         0.540         3.509
  YS02001895YS02001898       389.342       720.505         7.184         0.539         3.505
  YS02001898YS02001901       389.156       720.197         7.179         0.539         3.503
  YS02001901YS02001904       389.025       720.020         7.186         0.540         3.508
  YS02001904YS02001907       389.294       720.452         7.241         0.547         3.543
  YS02001887YS02001890       390.312       721.934         7.244         0.546         3.542
  YS02001652YS02001649       161.487       294.803         3.298         0.237         1.545
  YS02001655YS02001652       162.242       296.017         3.318         0.238         1.554
  YS02001658YS02001655       161.874       295.412         3.234         0.227         1.499
  YS02001661YS02001658       166.171       303.052         3.322         0.233         1.540
  YS02001664YS02001661       178.188       322.987         3.590         0.251         1.662
  YSB1154YSB6556              21.532        41.528         0.402         0.032         0.198
  YSB1174YSB1171              14.655        28.291         0.298         0.024         0.150
  YSB1171HS02004479           38.105        72.910         0.888         0.079         0.465
  HS02004881HS02006253        42.105        82.113         0.930         0.068         0.458
  YS02001793JiankangQianchi       949.364      1739.397        20.803         1.606        10.494
  YS02001757CaochengTiaoxuchi       499.633       898.201        10.517         0.755         5.167
  WSF200WS02003060           649.003      1199.481        17.964         1.622         9.582
  1                         2188.151      3726.536       148.381        17.638        90.253
  CC-Pump-1                  115.320       208.353         2.410         0.174         1.184
  CC-Pump-2                   41.371        75.008         0.862         0.063         0.423
  JK-Pump-1                  232.051       430.920         4.889         0.370         2.444
  JK-Pump-2                  500.442       931.438        10.526         0.797         5.260
  XR-Pump-1                  379.266       623.625        31.851         3.906        19.686
  XR-Pump-2                  353.143       581.830        29.344         3.593        18.119
  XR-Pump-3                  338.649       558.525        28.012         3.428        17.292
  XR-Pump-4                  338.649       558.525        28.012         3.428        17.292
  

  Analysis begun on:  Thu Jul 15 14:21:50 2021
  Analysis ended on:  Thu Jul 15 14:21:53 2021
  Total elapsed time: 00:00:03