
  EPA STORM WATER MANAGEMENT MODEL - VERSION 5.1 (Build 5.3.0.dev0)
  --------------------------------------------------------------

  WARNING 04: minimum elevation drop used for Conduit WS02004404WS02004405
  WARNING 03: negative offset ignored for Link YS02001904YS02001907
  
  *********************************************************
  NOTE: The summary statistics displayed in this report are
  based on results found at every computational time step,  
  not just on results from each reporting time step.
  *********************************************************
  
  ****************
  Analysis Options
  ****************
  Flow Units ............... LPS
  Process Models:
    Rainfall/Runoff ........ YES
    RDII ................... NO
    Snowmelt ............... NO
    Groundwater ............ NO
    Flow Routing ........... YES
    Ponding Allowed ........ NO
    Water Quality .......... YES
  Infiltration Method ...... HORTON
  Flow Routing Method ...... DYNWAVE
  Surcharge Method ......... EXTRAN
  Starting Date ............ 08/28/2015 08:00:00
  Ending Date .............. 08/28/2015 15:50:00
  Antecedent Dry Days ...... 8.0
  Report Time Step ......... 00:01:00
  Wet Time Step ............ 00:01:00
  Dry Time Step ............ 00:01:00
  Routing Time Step ........ 5.00 sec
  Variable Time Step ....... YES
  Maximum Trials ........... 8
  Number of Threads ........ 4
  Head Tolerance ........... 0.001500 m
  
  
  **************************        Volume         Depth
  Runoff Quantity Continuity     hectare-m            mm
  **************************     ---------       -------
  Total Precipitation ......         6.144        13.452
  Evaporation Loss .........         0.000         0.000
  Infiltration Loss ........         1.064         2.328
  Surface Runoff ...........         4.147         9.079
  Final Storage ............         0.935         2.047
  Continuity Error (%) .....        -0.020
  
  
  **************************           COD            SS            TN            TP         NH4-N
  Runoff Quality Continuity             kg            kg            kg            kg            kg
  **************************    ----------    ----------    ----------    ----------    ----------
  Initial Buildup ..........     41378.656     70582.865      1804.177       168.684      1032.807
  Surface Buildup ..........        21.799        40.924         2.400         0.218         1.395
  Wet Deposition ...........         0.000         0.000         0.000         0.000         0.000
  Sweeping Removal .........         0.000         0.000         0.000         0.000         0.000
  Infiltration Loss ........        97.311       184.943         1.849         0.130         0.881
  BMP Removal ..............         0.000         0.000         0.000         0.000         0.000
  Surface Runoff ...........      3769.819      7064.251        72.781         4.964        34.599
  Remaining Buildup ........     37531.916     63371.884      1731.919       163.806       998.709
  Continuity Error (%) .....         0.003         0.004         0.002         0.001         0.001
  
  
  **************************        Volume        Volume
  Flow Routing Continuity        hectare-m      10^6 ltr
  **************************     ---------     ---------
  Dry Weather Inflow .......         0.616         6.165
  Wet Weather Inflow .......         4.145        41.452
  Groundwater Inflow .......         0.000         0.000
  RDII Inflow ..............         0.000         0.000
  External Inflow ..........         0.102         1.024
  External Outflow .........         1.870        18.699
  Flooding Loss ............         2.550        25.504
  Evaporation Loss .........         0.000         0.000
  Exfiltration Loss ........         0.000         0.000
  Initial Stored Volume ....         0.076         0.761
  Final Stored Volume ......         0.630         6.304
  Continuity Error (%) .....        -2.240
  
  
  **************************           COD            SS            TN            TP         NH4-N
  Quality Routing Continuity            kg            kg            kg            kg            kg
  **************************    ----------    ----------    ----------    ----------    ----------
  Dry Weather Inflow .......      1541.201      2465.922       147.955        18.494        92.472
  Wet Weather Inflow .......      3769.017      7062.880        72.763         4.963        34.591
  Groundwater Inflow .......         0.000         0.000         0.000         0.000         0.000
  RDII Inflow ..............         0.000         0.000         0.000         0.000         0.000
  External Inflow ..........       183.418       293.469        17.608         2.201        11.005
  External Outflow .........      2272.554      3924.073       145.769        17.169        88.230
  Flooding Loss ............      2544.666      4732.455        64.989         5.634        34.088
  Exfiltration Loss ........         0.000         0.000         0.000         0.000         0.000
  Mass Reacted .............         0.000         0.000         0.000         0.000         0.000
  Initial Stored Mass ......         0.000         0.000         0.000         0.000         0.000
  Final Stored Mass ........       562.345       973.401        24.605         2.618        14.226
  Continuity Error (%) .....         2.076         1.958         1.244         0.930         1.104
  
  
  *************************
  Highest Continuity Errors
  *************************
  Node HS02004842 (13.41%)
  Node YS02001884 (11.44%)
  Node JK-storage (-10.23%)
  Node HS02004817 (2.53%)
  Node YSB1171 (2.47%)
  
  
  ***************************
  Time-Step Critical Elements
  ***************************
  Link WS02006252WS02006251 (52.12%)
  Link WS02006280WS02006229 (13.25%)
  Link WS02006238WS02006235 (12.47%)
  Link YS02006556YS02006558 (4.35%)
  Link YS02001793JiankangQianchi (2.44%)
  
  
  ********************************
  Highest Flow Instability Indexes
  ********************************
  Link WS02006113WS02006111 (43)
  Link YS02163601YS02164001 (32)
  Link YS02163301YS02001633 (31)
  Link YS02001629YS02163301 (30)
  Link YS02001619YS02001622 (29)
  
  
  *************************
  Routing Time Step Summary
  *************************
  Minimum Time Step           :     0.50 sec
  Average Time Step           :     1.35 sec
  Maximum Time Step           :     5.00 sec
  Percent in Steady State     :    -0.00
  Average Iterations per Step :     3.95
  Percent Not Converging      :    14.82
  
  
  ***************************
  Subcatchment Runoff Summary
  ***************************
  
  ------------------------------------------------------------------------------------------------------------------------------
                            Total      Total      Total      Total     Imperv       Perv      Total       Total     Peak  Runoff
                           Precip      Runon       Evap      Infil     Runoff     Runoff     Runoff      Runoff   Runoff   Coeff
  Subcatchment                 mm         mm         mm         mm         mm         mm         mm    10^6 ltr      LPS
  ------------------------------------------------------------------------------------------------------------------------------
  sub0                      13.45       0.00       0.00       0.63      12.47       0.31      12.77        0.01     3.75   0.950
  sub1                      13.45       0.00       0.00       1.12      11.88       0.36      12.24        0.08    25.66   0.910
  sub2                      13.45       0.00       0.00       4.44       8.39       0.53       8.92        0.08    25.29   0.663
  sub3                      13.45       0.00       0.00       4.56       8.35       0.42       8.77        0.20    55.75   0.652
  sub4                      13.45       0.00       0.00       1.22      11.71       0.26      11.97        0.25    65.52   0.890
  sub5                      13.45       0.00       0.00       0.68      12.41       0.26      12.67        0.14    44.76   0.942
  sub7                      13.45       0.00       0.00       0.86      12.18       0.35      12.53        0.04    14.26   0.931
  sub8                      13.45       0.00       0.00       0.87      12.17       0.34      12.50        0.08    26.26   0.930
  sub9                      13.45       0.00       0.00       0.88      12.17       0.33      12.50        0.06    19.64   0.929
  sub10                     13.45       0.00       0.00       0.78      12.29       0.29      12.58        0.14    44.00   0.935
  sub11                     13.45       0.00       0.00       0.77      12.30       0.31      12.61        0.15    48.45   0.938
  sub12                     13.45       0.00       0.00       1.25      11.66       0.50      12.16        0.11    38.10   0.904
  sub14                     13.45       0.00       0.00       0.88      12.16       0.33      12.49        0.12    38.67   0.929
  sub15                     13.45       0.00       0.00       3.37       9.35       0.66      10.01        0.17    57.01   0.744
  sub16                     13.45       0.00       0.00       3.56       8.97       0.88       9.85        0.10    37.63   0.732
  sub17                     13.45       0.00       0.00       3.47       9.10       0.84       9.94        0.09    30.67   0.739
  sub22                     13.45       0.00       0.00       4.98       7.63       0.81       8.43        0.53   184.54   0.627
  sub23                     13.45       0.00       0.00       4.17       8.43       0.81       9.24        0.44   154.22   0.687
  sub60                     13.45       0.00       0.00       1.53       9.85       0.09       9.93        3.01   438.14   0.738
  sub61                     13.45       0.00       0.00       2.16       9.95       0.12      10.07        3.11   536.45   0.749
  sub62                     13.45       0.00       0.00       0.98      10.84       0.10      10.94        3.36   552.35   0.813
  sub63                     13.45       0.00       0.00       3.77       8.69       0.14       8.83        2.67   492.63   0.656
  sub64                     13.45       0.00       0.00       1.93       9.45       0.09       9.54        2.90   416.72   0.709
  sub65                     13.45       0.00       0.00       1.67       9.61       0.08       9.70        2.98   423.09   0.721
  sub66                     13.45       0.00       0.00       3.81       8.10       0.09       8.18        2.51   380.66   0.608
  sub67                     13.45       0.00       0.00       0.95      11.38       0.13      11.51        3.55   679.52   0.856
  sub68                     13.45       0.00       0.00       1.75      10.45       0.13      10.59        3.26   586.26   0.787
  sub69                     13.45       0.00       0.00       1.83      10.79       0.19      10.98        2.57   544.72   0.816
  sub70                     13.45      11.20       0.00       7.51      14.65       0.88      15.52        3.55   494.81   0.630
  sub71                     13.45       0.00       0.00       0.99      10.58       0.09      10.67        2.52   389.24   0.793
  sub72                     13.45       0.00       0.00       0.89       8.56       0.05       8.61        1.75   189.18   0.640
  1                         13.45      15.11       0.00       1.37      16.56       4.63      21.19        4.98   484.42   0.742
  2                         13.45       0.00       0.00       3.02       3.21       1.96       5.17        2.07   340.45   0.384
  
  
  ****************************
  Subcatchment Washoff Summary
  ****************************
  
  ------------------------------------------------------------------------------------------
                                 COD            SS            TN            TP         NH4-N
  Subcatchment                    kg            kg            kg            kg            kg
  ------------------------------------------------------------------------------------------
  sub0                         2.670         5.197         0.046         0.004         0.022
  sub1                        11.241        22.423         0.210         0.015         0.101
  sub2                         6.894        13.384         0.145         0.010         0.067
  sub3                        16.924        32.573         0.350         0.024         0.161
  sub4                        25.772        51.904         0.510         0.031         0.245
  sub5                        25.778        50.682         0.460         0.035         0.223
  sub7                         5.751        11.638         0.108         0.007         0.052
  sub8                         8.581        17.755         0.171         0.010         0.082
  sub9                         7.353        15.005         0.142         0.009         0.068
  sub10                       21.202        42.223         0.389         0.028         0.188
  sub11                       20.657        41.614         0.386         0.026         0.187
  sub12                       17.724        35.094         0.321         0.024         0.155
  sub14                       15.732        31.800         0.298         0.020         0.144
  sub15                       20.231        39.321         0.389         0.028         0.182
  sub16                       13.129        25.518         0.249         0.019         0.117
  sub17                       12.049        23.208         0.222         0.017         0.105
  sub22                       62.582       119.432         1.186         0.090         0.554
  sub23                       36.683        72.439         0.776         0.051         0.357
  sub60                      243.520       456.962         4.842         0.298         2.321
  sub61                      302.151       564.434         5.627         0.386         2.710
  sub62                      313.722       596.076         6.119         0.388         2.938
  sub63                      223.275       410.850         4.468         0.314         2.075
  sub64                      305.877       553.773         5.626         0.410         2.687
  sub65                      313.037       569.066         5.795         0.415         2.772
  sub66                      176.068       321.340         3.608         0.236         1.687
  sub67                      466.222       877.505         8.365         0.616         4.045
  sub68                      332.037       626.413         6.347         0.429         3.034
  sub69                      298.258       568.561         5.590         0.393         2.674
  sub70                      502.897       962.303        10.037         0.699         4.710
  sub71                      206.745       396.330         4.242         0.246         2.030
  sub72                      164.385       293.107         3.069         0.210         1.476
  1                          349.075       671.606         7.102         0.495         3.297
  2                           42.749        75.577         1.214         0.073         0.518
  ------------------------------------------------------------------------------------------
  System                    4570.974      8595.115        88.408         6.057        41.983
  
  
  ******************
  Node Depth Summary
  ******************
  
  ---------------------------------------------------------------------------------
                                 Average  Maximum  Maximum  Time of Max    Reported
                                   Depth    Depth      HGL   Occurrence   Max Depth
  Node                 Type       Meters   Meters   Meters  days hr:min      Meters
  ---------------------------------------------------------------------------------
  WS02001211           JUNCTION     0.76     0.84     5.67     0  03:06        0.84
  WS02001212           JUNCTION     0.47     0.56     5.63     0  03:06        0.56
  WS02001213           JUNCTION     0.71     0.84     5.60     0  03:05        0.84
  WS02003069           JUNCTION     0.50     0.69     5.28     0  03:05        0.69
  WS02003072           JUNCTION     0.56     0.74     5.11     0  03:06        0.74
  WS02003073           JUNCTION     0.34     0.46     4.53     0  03:04        0.46
  WS02003060           JUNCTION     0.44     0.61     5.54     0  03:05        0.61
  WS02003066           JUNCTION     0.24     0.37     5.93     0  03:01        0.37
  WS02003059           JUNCTION     0.76     0.89     5.58     0  03:05        0.89
  WS02003067           JUNCTION     0.58     0.80     6.12     0  03:00        0.80
  WS02004401           JUNCTION     0.69     1.18     7.18     0  02:59        1.17
  WS02004402           JUNCTION     0.72     1.17     7.13     0  02:59        1.16
  WS02004403           JUNCTION     0.74     1.16     7.09     0  02:58        1.15
  WS02004404           JUNCTION     0.81     1.21     7.06     0  02:59        1.19
  WS02004406           JUNCTION     0.81     1.14     6.97     0  02:59        1.13
  WS02004409           JUNCTION     0.50     0.90     6.67     0  03:00        0.90
  WS02004410           JUNCTION     0.52     0.89     6.61     0  03:00        0.89
  WS02004411           JUNCTION     0.53     0.88     6.56     0  03:01        0.88
  WS02004412           JUNCTION     0.55     0.87     6.51     0  03:01        0.87
  WS02004413           JUNCTION     0.71     1.00     6.47     0  03:01        1.00
  WS02004405           JUNCTION     0.81     1.18     7.03     0  02:59        1.18
  WS02006109           JUNCTION     0.78     1.38     7.99     0  02:58        1.36
  WS02006110           JUNCTION     0.77     1.21     7.79     0  02:58        1.19
  WS02006111           JUNCTION     0.24     0.75     7.46     0  02:59        0.75
  WS02006112           JUNCTION     0.87     1.47     7.36     0  02:59        1.46
  WS02006113           JUNCTION     0.35     0.72     7.61     0  02:59        0.71
  WS02006115           JUNCTION     0.59     1.14     7.28     0  02:58        1.14
  WS02006116           JUNCTION     0.67     1.19     7.23     0  02:59        1.19
  WS02006230           JUNCTION     0.77     1.58     8.32     0  02:58        1.56
  WS02006231           JUNCTION     0.52     1.23     8.35     0  02:58        1.22
  WS02006232           JUNCTION     0.66     1.35     8.39     0  02:58        1.33
  WS02006234           JUNCTION     0.58     1.26     8.42     0  02:58        1.25
  WS02006235           JUNCTION     0.62     1.29     8.46     0  02:58        1.27
  WS02006238           JUNCTION     0.64     1.31     8.45     0  02:58        1.29
  WS02006240           JUNCTION     0.53     1.17     8.46     0  02:58        1.15
  WS02006242           JUNCTION     0.57     1.25     8.52     0  03:52        1.22
  WS02006243           JUNCTION     0.45     1.16     8.58     0  03:52        1.12
  WS02006245           JUNCTION     0.42     1.14     8.62     0  03:52        1.11
  WS02006247           JUNCTION     0.42     1.15     8.65     0  03:52        1.12
  WS02006248           JUNCTION     0.36     1.09     8.68     0  03:52        1.08
  WS02006249           JUNCTION     0.38     1.09     8.69     0  03:52        1.09
  WS02006239           JUNCTION     0.59     1.24     8.45     0  02:58        1.23
  WS02006251           JUNCTION     0.36     1.27     8.94     0  03:52        1.12
  WS02006252           JUNCTION     0.22     0.79     9.04     0  03:52        0.67
  WS02006253           JUNCTION     0.39     1.48     9.13     0  03:52        1.15
  WS02006256           JUNCTION     1.79     2.35     9.28     0  00:28        2.35
  WS02004138           JUNCTION     0.19     0.20     7.45     0  00:00        0.19
  WS02004139           JUNCTION     0.71     0.78     5.69     0  03:07        0.78
  WS02004407           JUNCTION     0.23     0.38     6.69     0  02:59        0.38
  WS02006228           JUNCTION     0.79     1.53     8.18     0  02:58        1.50
  WS02006229           JUNCTION     0.77     1.59     8.28     0  02:58        1.56
  WS02006280           JUNCTION     0.07     0.26     8.53     0  03:02        0.26
  WS02006284           JUNCTION     0.37     0.65     9.04     0  03:02        0.64
  WS02006287           JUNCTION     0.10     0.39     9.34     0  03:02        0.39
  WSF200               JUNCTION     0.22     0.42     5.65     0  03:01        0.42
  HS02004901           JUNCTION     0.13     0.38    10.20     0  03:01        0.37
  HS02004881           JUNCTION     0.01     0.05     9.08     0  03:01        0.05
  HS02004876           JUNCTION     0.05     0.16     9.19     0  03:01        0.16
  HS02004870           JUNCTION     0.02     0.09     9.38     0  03:01        0.09
  HS02004862           JUNCTION     0.02     0.11     9.49     0  03:01        0.11
  HS02004856           JUNCTION     0.08     0.15     9.58     0  03:01        0.15
  HS02004852           JUNCTION     0.01     0.07     9.59     0  03:02        0.07
  HS02004848           JUNCTION     0.01     0.07     9.67     0  03:01        0.07
  HS02004842           JUNCTION     0.34     0.40     9.67     0  03:01        0.40
  HS02004837           JUNCTION     0.03     0.09     9.67     0  03:01        0.09
  HS02004830           JUNCTION     0.04     0.10     9.57     0  03:01        0.10
  HS02004824           JUNCTION     0.03     0.13     9.53     0  03:02        0.13
  HS02004817           JUNCTION     0.45     0.69     9.54     0  03:02        0.69
  HS02004807           JUNCTION     0.13     0.36     9.53     0  03:02        0.36
  HS02004802           JUNCTION     0.17     0.39     9.52     0  03:02        0.39
  HS02004799           JUNCTION     0.13     0.46     9.68     0  03:01        0.46
  HS02004792           JUNCTION     0.04     0.22     9.74     0  03:01        0.21
  HS02004788           JUNCTION     0.03     0.16    10.05     0  03:02        0.16
  HS02004785           JUNCTION     0.05     0.25    10.15     0  03:02        0.25
  HS02004777           JUNCTION     0.15     0.39    10.19     0  03:01        0.39
  HS02004770           JUNCTION     0.12     0.37    10.20     0  03:01        0.36
  HS02004480           JUNCTION     0.09     0.38     9.62     0  03:01        0.38
  HS02004479           JUNCTION     0.12     0.42     9.62     0  03:01        0.42
  HS02004478           JUNCTION     0.07     0.28     9.50     0  03:01        0.28
  YS02001745           JUNCTION     0.73     0.96     8.48     0  03:13        0.96
  YS02001748           JUNCTION     1.12     2.02     9.10     0  02:32        1.39
  YS02001751           JUNCTION     1.30     1.72     8.60     0  02:32        1.59
  YS02001754           JUNCTION     1.55     1.86     8.47     0  03:15        1.86
  YS02001762           JUNCTION     1.75     2.06     8.46     0  03:16        2.05
  YS02001765           JUNCTION     1.70     2.01     8.46     0  03:17        1.99
  YS02001767           JUNCTION     1.66     1.96     8.45     0  03:12        1.95
  YS02001770           JUNCTION     1.66     1.94     8.43     0  03:17        1.94
  YS02001774           JUNCTION     1.72     1.99     8.42     0  03:11        1.98
  YS02001779           JUNCTION     1.47     1.68     8.37     0  02:25        1.68
  YS02001882           JUNCTION     0.56     1.63     8.35     0  03:00        1.63
  YS02001884           JUNCTION     0.65     1.74     8.35     0  03:00        1.73
  YS02001759           JUNCTION     1.78     2.10     8.46     0  03:16        2.09
  YS02001887           JUNCTION     0.73     1.81     8.35     0  03:00        1.81
  YS02001890           JUNCTION     0.76     1.81     8.32     0  02:50        1.81
  YS02001898           JUNCTION     0.53     1.56     8.30     0  02:54        1.55
  YS02001901           JUNCTION     0.64     1.68     8.29     0  02:50        1.67
  YS02001904           JUNCTION     0.62     1.64     8.27     0  03:02        1.63
  YS02001907           JUNCTION     0.95     1.96     8.25     0  02:50        1.96
  YS02001910           JUNCTION     0.74     1.78     8.29     0  02:51        1.77
  YS02001915           JUNCTION     0.54     1.60     8.31     0  02:51        1.59
  YS02001918           JUNCTION     0.29     1.28     8.35     0  02:51        1.27
  YS02001619           JUNCTION     1.26     1.58     8.51     0  02:32        1.49
  YS02001629           JUNCTION     1.61     1.85     8.40     0  02:32        1.84
  YS02001641           JUNCTION     1.70     1.94     8.37     0  02:59        1.93
  YS02001644           JUNCTION     1.71     1.92     8.35     0  02:39        1.92
  YS02001652           JUNCTION     1.56     2.13     8.73     0  02:46        1.85
  YS02001655           JUNCTION     1.32     2.20     9.05     0  02:27        1.62
  YS02001920           JUNCTION     0.39     1.36     8.37     0  02:51        1.34
  YS02001923           JUNCTION     0.22     1.12     8.38     0  02:51        1.10
  YS02001926           JUNCTION     0.28     0.94     8.39     0  02:51        0.94
  YS02001929           JUNCTION     0.16     0.71     8.41     0  02:52        0.71
  YS02001658           JUNCTION     1.06     2.30     9.44     0  02:30        1.41
  YS02001661           JUNCTION     0.83     2.46     9.86     0  02:46        1.30
  YS02001664           JUNCTION     0.38     0.57     8.50     0  04:29        0.56
  YS02001622           JUNCTION     1.28     1.57     8.48     0  02:32        1.50
  YS02001633           JUNCTION     1.70     1.95     8.40     0  02:40        1.94
  YS02001649           JUNCTION     1.75     2.05     8.44     0  02:30        2.05
  YS02001757           JUNCTION     1.88     2.20     8.46     0  03:16        2.19
  YS02001895           JUNCTION     0.52     1.57     8.31     0  03:11        1.56
  YS02001625           JUNCTION     1.56     1.78     8.38     0  02:32        1.78
  YS02163301           JUNCTION     1.64     1.88     8.40     0  02:40        1.88
  YS02163601           JUNCTION     1.75     1.99     8.39     0  02:40        1.98
  YS02164001           JUNCTION     1.69     1.92     8.38     0  02:40        1.91
  YS02001647           JUNCTION     1.54     1.80     8.41     0  02:46        1.79
  YSB1154              JUNCTION     0.26     0.57     9.62     0  03:01        0.57
  YSB6556              JUNCTION     0.16     0.45     9.62     0  03:02        0.45
  YSB1174              JUNCTION     0.21     0.52     9.62     0  03:01        0.51
  YSB1171              JUNCTION     0.42     0.72     9.62     0  03:01        0.72
  YS02006553           JUNCTION     0.95     2.05     8.33     0  02:55        1.96
  YS02006561           JUNCTION     0.31     1.35     8.01     0  02:55        1.08
  YS02006556           JUNCTION     0.92     2.13     8.44     0  02:55        1.93
  YS02006558           JUNCTION     0.96     2.20     8.47     0  02:55        1.97
  YS02001783           JUNCTION     0.53     1.82     7.96     0  02:55        1.47
  YS02001784           JUNCTION     0.55     1.81     7.87     0  02:55        1.41
  YS02001786           JUNCTION     0.49     1.68     7.71     0  02:55        1.26
  YS02001788           JUNCTION     0.41     1.59     7.57     0  02:55        1.13
  YS02001790           JUNCTION     0.53     1.72     7.37     0  06:06        1.29
  YS02001791           JUNCTION     0.48     2.35     7.82     0  06:04        1.27
  YS02001793           JUNCTION     0.66     2.14     6.97     0  06:04        1.80
  WSC                  OUTFALL      0.34     0.46     1.13     0  03:07        0.46
  JK-storage           STORAGE      2.84     5.80     6.60     0  02:15        5.80
  CC-storage           STORAGE      1.14     1.46     8.46     0  03:13        1.46
  XR-storage           STORAGE      6.64     7.72     5.72     0  02:55        7.72
  
  
  *******************
  Node Inflow Summary
  *******************
  
  -------------------------------------------------------------------------------------------------
                                  Maximum  Maximum                  Lateral       Total        Flow
                                  Lateral    Total  Time of Max      Inflow      Inflow     Balance
                                   Inflow   Inflow   Occurrence      Volume      Volume       Error
  Node                 Type           LPS      LPS  days hr:min    10^6 ltr    10^6 ltr     Percent
  -------------------------------------------------------------------------------------------------
  WS02001211           JUNCTION      7.35   391.29     0  03:14       0.207        9.97       0.397
  WS02001212           JUNCTION      0.00   395.04     0  03:14           0        9.93       0.237
  WS02001213           JUNCTION      0.00   398.31     0  03:13           0        9.91       0.272
  WS02003069           JUNCTION      0.32  1260.20     0  03:05     0.00902        18.8       0.151
  WS02003072           JUNCTION      0.00  1260.08     0  03:06           0        18.7       0.189
  WS02003073           JUNCTION      1.82  1261.83     0  03:06      0.0514        18.7       0.216
  WS02003060           JUNCTION     16.53  1259.99     0  03:05       0.466        18.8       0.143
  WS02003066           JUNCTION      0.00   868.97     0  03:01           0        8.47       0.034
  WS02003059           JUNCTION      0.00   402.99     0  03:13           0        9.88       0.389
  WS02003067           JUNCTION      0.00   868.33     0  03:01           0        8.47       0.077
  WS02004401           JUNCTION      0.00   873.93     0  02:59           0        8.63       0.156
  WS02004402           JUNCTION      0.00   874.20     0  02:59           0        8.61       0.154
  WS02004403           JUNCTION      0.00   874.17     0  02:59           0         8.6       0.148
  WS02004404           JUNCTION      0.16   874.55     0  02:59     0.00457        8.59       0.118
  WS02004406           JUNCTION      0.00   874.16     0  02:59           0        8.57       0.290
  WS02004409           JUNCTION      0.00   873.58     0  02:59           0        8.54       0.096
  WS02004410           JUNCTION      0.00   870.46     0  03:00           0        8.53       0.122
  WS02004411           JUNCTION      0.00   868.67     0  03:00           0        8.52       0.135
  WS02004412           JUNCTION      0.00   868.00     0  03:01           0        8.51       0.158
  WS02004413           JUNCTION      0.00   868.14     0  03:01           0         8.5       0.254
  WS02004405           JUNCTION      0.04   875.04     0  02:59     0.00107        8.58       0.178
  WS02006109           JUNCTION      1.23   860.70     0  02:58      0.0347         8.6       0.090
  WS02006110           JUNCTION      0.00   860.62     0  02:58           0         8.6       0.123
  WS02006111           JUNCTION      0.00   848.06     0  02:58           0        8.58       0.010
  WS02006112           JUNCTION     30.67   873.26     0  02:59      0.0853        8.67       0.241
  WS02006113           JUNCTION      0.00   860.87     0  02:58           0        8.59       0.041
  WS02006115           JUNCTION      0.00   873.45     0  02:59           0        8.65       0.120
  WS02006116           JUNCTION      0.00   873.71     0  02:59           0        8.64       0.101
  WS02006230           JUNCTION     10.28   531.78     0  05:21        0.29        6.16       0.084
  WS02006231           JUNCTION      0.00   521.35     0  05:21           0        5.87      -0.016
  WS02006232           JUNCTION      0.00   521.44     0  05:19           0        5.87       0.098
  WS02006234           JUNCTION      0.00   521.84     0  05:21           0        5.87      -0.044
  WS02006235           JUNCTION      0.00   522.15     0  05:19           0        5.96       0.079
  WS02006238           JUNCTION      0.00   329.69     0  06:04           0         2.4      -0.182
  WS02006240           JUNCTION      0.00   344.56     0  06:02           0        2.32       0.006
  WS02006242           JUNCTION      0.00   353.00     0  06:02           0        2.29       0.079
  WS02006243           JUNCTION      0.00   361.21     0  06:01           0        2.26      -0.243
  WS02006245           JUNCTION      0.00   367.22     0  06:01           0        2.26       0.305
  WS02006247           JUNCTION      0.00   371.46     0  06:01           0        2.26       0.050
  WS02006248           JUNCTION      0.00   376.21     0  06:01           0        2.26      -0.111
  WS02006249           JUNCTION      0.00   402.18     0  05:20           0        2.28       0.169
  WS02006239           JUNCTION      0.00   334.01     0  06:02           0        2.36      -0.146
  WS02006251           JUNCTION      0.08   400.78     0  05:20     0.00217        2.32      -0.042
  WS02006252           JUNCTION      0.00   399.90     0  03:50           0         1.8       0.005
  WS02006253           JUNCTION      3.75   144.47     0  03:50      0.0103        0.52      -0.017
  WS02006256           JUNCTION      0.00   983.00     0  02:30           0        9.54       0.007
  WS02004138           JUNCTION      0.00   380.00     0  00:00           0         9.8       0.069
  WS02004139           JUNCTION      0.32   394.45     0  00:00     0.00905        9.81       0.457
  WS02004407           JUNCTION      0.00   873.92     0  02:59           0        8.54       0.038
  WS02006228           JUNCTION      0.00   859.57     0  02:58           0        8.57       0.050
  WS02006229           JUNCTION      0.00   866.29     0  02:58           0        8.58       0.112
  WS02006280           JUNCTION      0.00   680.09     0  03:02           0        2.43      -0.000
  WS02006284           JUNCTION      0.10   678.97     0  03:02      0.0027        2.43       0.045
  WS02006287           JUNCTION      0.00   677.64     0  03:02           0        2.43       0.031
  WSF200               JUNCTION      0.00   869.20     0  03:01           0        8.47       0.027
  HS02004901           JUNCTION     37.63    37.63     0  03:01       0.103       0.103       1.741
  HS02004881           JUNCTION     14.26   140.54     0  03:01      0.0422       0.463       0.046
  HS02004876           JUNCTION     25.66   127.64     0  03:01      0.0814       0.422       0.131
  HS02004870           JUNCTION     26.26   103.59     0  03:01      0.0799        0.34       0.035
  HS02004862           JUNCTION     25.49    79.36     0  03:01      0.0888       0.261       0.068
  HS02004856           JUNCTION     19.64    55.39     0  03:01      0.0601       0.173       0.845
  HS02004852           JUNCTION      0.00    37.84     0  03:01           0       0.113       0.053
  HS02004848           JUNCTION     55.75    55.75     0  03:01       0.197       0.197       0.028
  HS02004842           JUNCTION      0.00    16.84     0  03:01           0       0.097      15.492
  HS02004837           JUNCTION     50.35    65.70     0  03:01       0.318       0.402       0.204
  HS02004830           JUNCTION      0.15    64.79     0  03:01     0.00423       0.392       0.316
  HS02004824           JUNCTION     65.57   128.43     0  03:01       0.251       0.642       0.086
  HS02004817           JUNCTION      0.60   124.46     0  03:01      0.0169       0.658       2.599
  HS02004807           JUNCTION     48.45   165.77     0  03:01       0.147       0.788       0.554
  HS02004802           JUNCTION      0.00   165.27     0  03:04           0       0.785       0.508
  HS02004799           JUNCTION     38.67   445.96     0  03:01       0.119        1.42       0.191
  HS02004792           JUNCTION    184.82   411.79     0  03:01        0.54         1.3       0.033
  HS02004788           JUNCTION     58.68   233.42     0  03:02       0.219       0.758       0.052
  HS02004785           JUNCTION      0.15   182.21     0  03:01     0.00423        0.54       0.094
  HS02004777           JUNCTION      0.03   185.00     0  03:01    0.000846       0.541       0.972
  HS02004770           JUNCTION    154.22   188.94     0  03:01       0.441       0.542       0.578
  HS02004480           JUNCTION      0.00   517.16     0  03:01           0        1.66       0.069
  HS02004479           JUNCTION      0.00    75.46     0  03:02           0       0.258       0.287
  HS02004478           JUNCTION      0.00   677.07     0  03:02           0        2.43       0.011
  YS02001745           JUNCTION    438.14   438.14     0  03:01        3.01        3.02       0.378
  YS02001748           JUNCTION      0.04   600.78     0  02:32     0.00127        3.01       0.683
  YS02001751           JUNCTION      0.01   441.93     0  03:01     0.00031        2.98       0.805
  YS02001754           JUNCTION      0.26   441.80     0  03:01     0.00733        2.96       0.840
  YS02001762           JUNCTION      0.00   325.35     0  03:18           0         2.1       1.019
  YS02001765           JUNCTION      0.00   325.20     0  03:18           0         2.1       1.176
  YS02001767           JUNCTION      0.54   325.72     0  03:18      0.0151        2.12       1.706
  YS02001770           JUNCTION    552.50   740.62     0  03:13        3.37        4.17       0.754
  YS02001774           JUNCTION      0.00   741.04     0  03:12           0        2.84       0.897
  YS02001779           JUNCTION      0.01   740.76     0  03:13    0.000141        2.81       0.548
  YS02001882           JUNCTION      0.00    12.26     0  04:08           0      0.0152      15.139
  YS02001884           JUNCTION      0.00    19.97     0  02:35           0      0.0523      12.913
  YS02001759           JUNCTION    536.49   623.01     0  02:42        3.11        4.37       0.519
  YS02001887           JUNCTION    679.97   679.97     0  03:01        3.56         3.6       0.240
  YS02001890           JUNCTION      0.00   679.78     0  03:01           0        3.55       0.263
  YS02001898           JUNCTION      0.00   518.16     0  02:59           0        3.45       0.079
  YS02001901           JUNCTION      0.00   517.90     0  02:59           0        3.45       0.199
  YS02001904           JUNCTION      0.00   517.77     0  02:59           0        3.44       0.174
  YS02001907           JUNCTION      0.00  1110.58     0  03:01           0        7.77       0.304
  YS02001910           JUNCTION      0.00   594.52     0  03:01           0        4.34       0.277
  YS02001915           JUNCTION    389.26   594.33     0  03:01        2.52        4.35       0.136
  YS02001918           JUNCTION      0.00   259.98     0  02:52           0        1.84       0.072
  YS02001619           JUNCTION    380.66   380.66     0  03:01        2.51        2.51       0.488
  YS02001629           JUNCTION      0.00   197.75     0  02:39           0        1.59       1.856
  YS02001641           JUNCTION      0.00   417.69     0  02:39           0        4.45       0.475
  YS02001644           JUNCTION    416.76  1566.91     0  03:11         2.9        11.9       0.225
  YS02001652           JUNCTION      0.00   499.09     0  03:01           0        2.62       0.909
  YS02001655           JUNCTION      0.15   498.99     0  03:01     0.00434        2.65       0.914
  YS02001920           JUNCTION      2.87   259.99     0  02:52      0.0809        1.84       0.148
  YS02001923           JUNCTION      0.04   230.32     0  02:52     0.00106        1.76       0.052
  YS02001926           JUNCTION      0.05   200.84     0  03:01     0.00147        1.75       0.197
  YS02001929           JUNCTION    189.18   189.18     0  03:01        1.75        1.75       0.038
  YS02001658           JUNCTION      0.00   612.83     0  02:29           0        2.68       0.782
  YS02001661           JUNCTION      0.00   665.57     0  02:43           0        2.97       0.101
  YS02001664           JUNCTION    492.63   492.63     0  03:01        2.67        2.96       0.212
  YS02001622           JUNCTION      0.00   381.20     0  03:01           0         2.5       1.295
  YS02001633           JUNCTION    423.29   423.29     0  03:01        2.99        4.52       0.717
  YS02001649           JUNCTION      0.00   871.25     0  02:39           0        6.69       0.557
  YS02001757           JUNCTION      0.00  1676.08     0  02:40           0        8.91       1.043
  YS02001895           JUNCTION      0.00   517.56     0  03:03           0        3.45       0.143
  YS02001625           JUNCTION      0.00   407.37     0  03:01           0        2.47       1.592
  YS02163301           JUNCTION      0.00   204.95     0  02:31           0        1.57       1.566
  YS02163601           JUNCTION      0.11   416.21     0  02:39      0.0031        4.48       0.677
  YS02164001           JUNCTION      0.00   417.09     0  02:39           0        4.46       0.462
  YS02001647           JUNCTION      0.00   846.75     0  03:15           0        5.91       0.480
  YSB1154              JUNCTION     44.76    44.76     0  03:01       0.144       0.144       1.018
  YSB6556              JUNCTION      0.00    43.26     0  03:01           0       0.145       0.870
  YSB1174              JUNCTION     38.10    38.10     0  03:01       0.106       0.107       1.222
  YSB1171              JUNCTION      0.00    76.89     0  03:01           0       0.257       2.528
  YS02006553           JUNCTION      0.00   718.78     0  02:51           0         6.8       0.222
  YS02006561           JUNCTION      0.00  1145.92     0  02:55           0          10       0.007
  YS02006556           JUNCTION      0.00   719.02     0  02:51           0         6.8       0.159
  YS02006558           JUNCTION    587.14  1145.93     0  02:55        3.28        10.1       0.047
  YS02001783           JUNCTION      0.00  1146.06     0  02:55           0          10       0.023
  YS02001784           JUNCTION      1.06  1146.80     0  02:55      0.0299        10.1       0.035
  YS02001786           JUNCTION      0.06  1146.88     0  02:55     0.00159          10       0.033
  YS02001788           JUNCTION      0.07  1151.20     0  02:55       0.002          10       0.018
  YS02001790           JUNCTION      0.15  1157.32     0  02:54     0.00437        10.1       0.017
  YS02001791           JUNCTION      0.00  1269.66     0  02:53           0          10       0.008
  YS02001793           JUNCTION      0.00  1223.07     0  02:52           0        10.1      -0.031
  WSC                  OUTFALL       0.00  1261.60     0  03:07           0        18.7       0.000
  JK-storage           STORAGE       0.00  1184.65     0  02:52           0        10.2      -9.281
  CC-storage           STORAGE       0.00  1675.50     0  02:40           0        6.02       1.090
  XR-storage           STORAGE    1024.87  1024.87     0  03:01        12.7        13.3      -0.003
  
  
  **********************
  Node Surcharge Summary
  **********************
  
  Surcharging occurs when water rises above the top of the highest conduit.
  ---------------------------------------------------------------------
                                               Max. Height   Min. Depth
                                   Hours       Above Crown    Below Rim
  Node                 Type      Surcharged         Meters       Meters
  ---------------------------------------------------------------------
  WS02004401           JUNCTION        0.38          0.179        1.481
  WS02004402           JUNCTION        0.41          0.175        1.565
  WS02004403           JUNCTION        0.42          0.155        1.875
  WS02004404           JUNCTION        0.69          0.208        2.572
  WS02004406           JUNCTION        0.58          0.136        2.314
  WS02004405           JUNCTION        0.64          0.183        2.617
  WS02006109           JUNCTION        2.59          0.557        1.263
  WS02006110           JUNCTION        1.28          0.296        1.554
  WS02006112           JUNCTION        1.57          0.474        1.206
  WS02006115           JUNCTION        0.24          0.133        2.117
  WS02006116           JUNCTION        0.26          0.134        2.156
  WS02006230           JUNCTION        0.87          0.495        1.075
  WS02006231           JUNCTION        1.24          0.520        1.010
  WS02006232           JUNCTION        2.42          0.652        0.828
  WS02006234           JUNCTION        1.61          0.544        0.696
  WS02006235           JUNCTION        1.83          0.582        0.708
  WS02006238           JUNCTION        1.92          0.585        0.845
  WS02006240           JUNCTION        1.25          0.460        0.930
  WS02006242           JUNCTION        1.28          0.521        0.299
  WS02006243           JUNCTION        0.96          0.448        0.322
  WS02006245           JUNCTION        0.86          0.425        0.425
  WS02006247           JUNCTION        0.85          0.438        0.322
  WS02006248           JUNCTION        0.61          0.369        0.011
  WS02006249           JUNCTION        0.67          0.390        0.000
  WS02006239           JUNCTION        1.49          0.505        0.785
  WS02006251           JUNCTION        0.13          0.239        0.941
  WS02006252           JUNCTION        0.76          0.394        0.706
  WS02006253           JUNCTION        0.14          0.442        2.038
  WS02006256           JUNCTION        6.92          2.050        0.000
  WS02006228           JUNCTION        2.51          0.697        1.503
  YS02001748           JUNCTION        5.22          0.942        0.248
  YS02001751           JUNCTION        5.37          0.722        0.478
  YS02001754           JUNCTION        5.58          0.812        0.338
  YS02001762           JUNCTION        5.75          1.059        0.091
  YS02001765           JUNCTION        5.72          1.005        0.095
  YS02001767           JUNCTION        5.69          0.958        0.072
  YS02001770           JUNCTION        5.68          0.908        0.012
  YS02001774           JUNCTION        5.74          0.995        0.055
  YS02001779           JUNCTION        5.56          0.680        0.000
  YS02001882           JUNCTION        1.07          0.633        0.197
  YS02001884           JUNCTION        1.09          0.676        0.194
  YS02001759           JUNCTION        5.78          1.097        0.113
  YS02001887           JUNCTION        1.17          0.765        0.185
  YS02001890           JUNCTION        1.20          0.760        0.000
  YS02001898           JUNCTION        1.03          0.532        0.208
  YS02001901           JUNCTION        1.13          0.677        0.193
  YS02001904           JUNCTION        1.11          0.638        0.212
  YS02001907           JUNCTION        1.88          0.950        0.000
  YS02001910           JUNCTION        1.24          0.784        0.316
  YS02001915           JUNCTION        1.05          0.596        0.404
  YS02001918           JUNCTION        0.86          0.284        0.526
  YS02001619           JUNCTION        5.37          0.582        0.028
  YS02001629           JUNCTION        5.38          0.467        0.003
  YS02001641           JUNCTION        5.73          0.936        0.164
  YS02001644           JUNCTION        5.73          0.920        0.000
  YS02001652           JUNCTION        5.61          1.101        0.029
  YS02001655           JUNCTION        5.39          1.200        0.000
  YS02001920           JUNCTION        0.89          0.360        0.780
  YS02001658           JUNCTION        5.25          1.300        0.000
  YS02001661           JUNCTION        0.09          1.390        0.000
  YS02001622           JUNCTION        5.40          0.572        0.048
  YS02001633           JUNCTION        5.71          0.926        0.134
  YS02001649           JUNCTION        5.76          1.050        0.000
  YS02001757           JUNCTION        5.86          1.202        0.008
  YS02001895           JUNCTION        1.04          0.566        0.184
  YS02001625           JUNCTION        5.64          0.780        0.000
  YS02163301           JUNCTION        5.68          0.885        0.145
  YS02163601           JUNCTION        5.75          0.989        0.091
  YS02164001           JUNCTION        5.72          0.923        0.177
  YS02001647           JUNCTION        5.62          0.804        0.096
  YS02006553           JUNCTION        1.97          1.050        0.140
  YS02006561           JUNCTION        0.87          0.548        0.602
  YS02006556           JUNCTION        1.47          1.087        0.263
  YS02006558           JUNCTION        1.43          1.104        0.296
  YS02001783           JUNCTION        1.31          1.016        0.584
  YS02001784           JUNCTION        1.28          1.007        0.483
  YS02001786           JUNCTION        1.09          0.876        0.554
  YS02001788           JUNCTION        0.91          0.789        0.691
  YS02001790           JUNCTION        1.85          0.921        0.236
  YS02001791           JUNCTION        1.94          1.554        0.366
  YS02001793           JUNCTION        2.25          1.143        1.457
  
  
  *********************
  Node Flooding Summary
  *********************
  
  Flooding refers to all water that overflows a node, whether it ponds or not.
  --------------------------------------------------------------------------
                                                             Total   Maximum
                                 Maximum   Time of Max       Flood    Ponded
                        Hours       Rate    Occurrence      Volume     Depth
  Node                 Flooded       LPS   days hr:min    10^6 ltr    Meters
  --------------------------------------------------------------------------
  WS02006249              0.11     83.73      0  03:52       0.015     0.000
  WS02006256              3.74    790.74      0  03:53       5.928     0.000
  YS02001779              3.21    740.74      0  03:13       2.788     0.000
  YS02001890              0.34    163.73      0  03:01       0.085     0.000
  YS02001907              0.72    727.10      0  03:01       0.963     0.000
  YS02001644              5.13   1566.83      0  03:11      10.556     0.000
  YS02001655              0.01    167.49      0  02:27       0.000     0.000
  YS02001658              0.01    181.88      0  02:30       0.000     0.000
  YS02001661              0.01    131.71      0  02:46       0.000     0.000
  YS02001649              0.09     43.49      0  02:46       0.001     0.000
  YS02001625              1.38    407.18      0  03:01       0.854     0.000
  JK-storage              1.08    972.21      0  03:00       1.586     0.000
  XR-storage              3.52    644.79      0  03:01       2.729     0.000
  
  
  **********************
  Storage Volume Summary
  **********************
  
  --------------------------------------------------------------------------------------------------
                         Average     Avg  Evap Exfil       Maximum     Max    Time of Max    Maximum
                          Volume    Pcnt  Pcnt  Pcnt        Volume    Pcnt     Occurrence    Outflow
  Storage Unit           1000 m3    Full  Loss  Loss       1000 m3    Full    days hr:min        LPS
  --------------------------------------------------------------------------------------------------
  JK-storage               0.143      49     0     0         0.291     100       0  02:15     983.00
  CC-storage               3.168      20     0     0         4.074      26       0  03:13     399.90
  XR-storage               0.797      86     0     0         0.926     100       0  02:55     380.00
  
  
  ***********************
  Outfall Loading Summary
  ***********************
  
  ---------------------------------------------------------------------------------------------------------------------------------
                         Flow       Avg       Max       Total         Total         Total         Total         Total         Total
                         Freq      Flow      Flow      Volume           COD            SS            TN            TP         NH4-N
  Outfall Node           Pcnt       LPS       LPS    10^6 ltr            kg            kg            kg            kg            kg
  ---------------------------------------------------------------------------------------------------------------------------------
  WSC                  100.00    724.14   1261.60      18.699      2272.646      3924.215       145.780        17.170        88.237
  ---------------------------------------------------------------------------------------------------------------------------------
  System               100.00    724.14   1261.60      18.699      2272.646      3924.215       145.780        17.170        88.237
  
  
  ********************
  Link Flow Summary
  ********************
  
  -----------------------------------------------------------------------------
                                 Maximum  Time of Max   Maximum    Max/    Max/
                                  |Flow|   Occurrence   |Veloc|    Full    Full
  Link                 Type          LPS  days hr:min     m/sec    Flow   Depth
  -----------------------------------------------------------------------------
  WS02003066WSF200     CONDUIT    869.20     0  03:01      2.97    0.15    0.31
  WS02006287WS02006284 CONDUIT    678.88     0  03:02      2.38    0.31    0.39
  WS02006284WS02006280 CONDUIT    680.09     0  03:02      2.62    0.28    0.37
  WS02006280WS02006229 CONDUIT    680.21     0  03:02      4.13    0.15    0.33
  WS02006229WS02006228 CONDUIT    859.57     0  02:58      1.71    2.85    1.00
  WS02006256WS02006235 CONDUIT    263.02     0  04:52      3.72    2.78    1.00
  WS02006253WS02006251 CONDUIT    171.79     0  03:00      0.54    0.52    1.00
  WS02006252WS02006251 CONDUIT    400.26     0  06:00      3.19    1.47    1.00
  WS02006251WS02006249 CONDUIT    402.18     0  05:20      1.13    1.16    1.00
  WS02006249WS02006248 CONDUIT    376.21     0  06:01      1.19    2.06    1.00
  WS02006248WS02006247 CONDUIT    371.46     0  06:01      1.17    0.81    1.00
  WS02006247WS02006245 CONDUIT    367.22     0  06:01      1.14    2.91    1.00
  WS02006245WS02006243 CONDUIT    361.21     0  06:01      1.19    1.07    1.00
  WS02006243WS02006242 CONDUIT    353.00     0  06:02      1.07    0.75    1.00
  WS02006242WS02006240 CONDUIT    344.56     0  06:02      1.02    1.37    1.00
  WS02006240WS02006239 CONDUIT    334.01     0  06:02      1.07    1.05    1.00
  WS02006239WS02006238 CONDUIT    329.69     0  06:04      0.97    1.05    1.00
  WS02006238WS02006235 CONDUIT    328.11     0  06:03      0.96    0.73    1.00
  WS02006235WS02006234 CONDUIT    521.84     0  05:21      1.36    5.51    1.00
  WS02006234WS02006232 CONDUIT    521.44     0  05:19      1.35    1.05    1.00
  WS02006232WS02006231 CONDUIT    521.35     0  05:21      1.35    1.09    1.00
  WS02006231WS02006230 CONDUIT    521.50     0  05:21      1.40    7.91    1.00
  WS02006230WS02006229 CONDUIT    531.43     0  05:21      1.38   11.83    1.00
  WS02006228WS02006109 CONDUIT    859.47     0  02:58      1.71    3.76    1.00
  WS02006116WS02004401 CONDUIT    873.93     0  02:59      1.11    1.20    1.00
  WS02006115WS02006116 CONDUIT    873.71     0  02:59      1.11    1.12    1.00
  WS02006113WS02006111 CONDUIT    848.06     0  02:58      2.58    1.02    0.92
  WS02006112WS02006115 CONDUIT    873.45     0  02:59      1.11    0.52    1.00
  WS02006111WS02006112 CONDUIT    844.59     0  02:59      1.72    0.40    0.96
  WS02006110WS02006113 CONDUIT    860.87     0  02:58      1.76    0.78    0.95
  WS02006109WS02006110 CONDUIT    860.62     0  02:58      1.71    1.65    1.00
  WS02004411WS02004412 CONDUIT    868.00     0  03:01      1.19    1.23    0.87
  WS02004401WS02004402 CONDUIT    874.20     0  02:59      1.11    1.05    1.00
  WS02004413WS02003067 CONDUIT    868.33     0  03:01      1.46    0.37    0.71
  WS02004412WS02004413 CONDUIT    868.14     0  03:01      1.14    0.58    0.93
  WS02004410WS02004411 CONDUIT    868.67     0  03:00      1.18    1.19    0.89
  WS02004409WS02004410 CONDUIT    870.46     0  03:00      1.17    1.13    0.90
  WS02004407WS02004409 CONDUIT    873.58     0  02:59      1.65    0.31    0.64
  WS02004406WS02004407 CONDUIT    873.92     0  02:59      1.51    0.39    0.69
  WS02004405WS02004406 CONDUIT    874.16     0  02:59      1.11    1.72    1.00
  WS02004404WS02004405 CONDUIT    875.00     0  02:59      1.12    8.57    1.00
  WS02004403WS02004404 CONDUIT    874.39     0  02:59      1.11    0.63    1.00
  WS02004402WS02004403 CONDUIT    874.17     0  02:59      1.11    1.26    1.00
  WS02004139WS02001211 CONDUIT    383.94     0  03:14      0.90    0.49    0.63
  WS02004138WS02004139 CONDUIT    394.13     0  00:00      3.62    0.08    0.46
  WS02003067WS02003066 CONDUIT    868.97     0  03:01      1.58    0.28    0.49
  WS02001213WS02003059 CONDUIT    402.99     0  03:13      0.89    0.67    0.85
  WS02001212WS02001213 CONDUIT    398.31     0  03:13      1.32    0.61    0.54
  WS02001211WS02001212 CONDUIT    395.04     0  03:14      0.78    0.30    0.70
  WS02003072WS02003073 CONDUIT   1260.01     0  03:06      1.92    2.72    0.56
  WS02003069WS02003072 CONDUIT   1260.08     0  03:06      1.79    0.61    0.60
  WS02003060WS02003069 CONDUIT   1259.88     0  03:05      2.00    0.49    0.54
  WS02003059WS02003060 CONDUIT    408.76     0  03:13      0.95    0.27    0.75
  HS02004901HS02004770 CONDUIT     37.21     0  03:01      0.10    0.14    0.53
  HS02004876HS02004881 CONDUIT    127.63     0  03:01      1.21    1.36    0.15
  HS02004870HS02004876 CONDUIT    103.10     0  03:01      0.82    0.07    0.18
  HS02004842HS02004848 CONDUIT     16.84     0  03:01      0.07    0.01    0.33
  HS02004837HS02004842 CONDUIT     17.91     0  03:03      0.42    0.01    0.35
  HS02004830HS02004837 CONDUIT     64.64     0  03:01      0.67    0.06    0.14
  HS02004824HS02004830 CONDUIT     64.11     0  03:02      0.62    0.08    0.16
  HS02004817HS02004824 CONDUIT    123.86     0  03:01      0.31    0.06    0.58
  HS02004770HS02004777 CONDUIT    184.97     0  03:01      0.49    0.34    0.54
  HS02004799HS02004480 CONDUIT    444.32     0  03:01      1.07    0.56    0.60
  HS02004792HS02004799 CONDUIT    408.39     0  03:01      1.20    0.25    0.49
  HS02004788HS02004792 CONDUIT    232.93     0  03:02      1.28    0.15    0.26
  HS02004785HS02004788 CONDUIT    181.78     0  03:02      0.91    1.37    0.29
  HS02004777HS02004785 CONDUIT    182.06     0  03:01      0.57    0.22    0.45
  HS02004480HS02004478 CONDUIT    517.33     0  03:01      1.55    2.18    0.48
  HS02004479HS02004480 CONDUIT     77.34     0  03:02      0.30    0.07    0.57
  HS02004862HS02004870 CONDUIT     79.02     0  03:01      0.80    0.09    0.14
  HS02004848HS02004852 CONDUIT     37.84     0  03:01      0.53    0.04    0.10
  HS02004856HS02004862 CONDUIT     54.76     0  03:01      0.59    0.05    0.13
  HS02004852HS02004856 CONDUIT     37.75     0  03:02      0.34    0.04    0.16
  HS02004802HS02004478 CONDUIT    170.13     0  03:04      0.54    0.15    0.48
  HS02004478WS02006287 CONDUIT    677.64     0  03:02      2.11    0.19    0.36
  HS02004817HS02004807 CONDUIT    128.13     0  03:04      0.25    0.08    0.75
  HS02004807HS02004802 CONDUIT    165.27     0  03:04      0.46    0.32    0.53
  YS02001759YS02001757 CONDUIT    622.70     0  02:42      0.79    0.44    1.00
  YS02001762YS02001759 CONDUIT    325.35     0  03:18      0.41    0.37    1.00
  YS02001765YS02001762 CONDUIT    325.20     0  03:18      0.41    0.30    1.00
  YS02001770YS02001767 CONDUIT    325.80     0  03:18      0.41    1.29    1.00
  YS02001774YS02001770 CONDUIT    741.04     0  03:12      0.94    0.47    1.00
  YS02001779YS02001774 CONDUIT    740.75     0  03:13      0.94    0.37    1.00
  YS02001649YS02001757 CONDUIT    872.13     0  02:39      1.11    0.53    1.00
  YS02001767YS02001765 CONDUIT    325.18     0  03:18      0.41    0.41    1.00
  YS02006561YS02001783 CONDUIT   1146.06     0  02:55      2.28    0.59    1.00
  YS02001783YS02001784 CONDUIT   1145.74     0  02:55      2.28    1.58    1.00
  YS02001784YS02001785 CONDUIT   1146.83     0  02:55      2.28    2.67    1.00
  YS02001788YS02001790 CONDUIT   1157.16     0  02:54      2.70    0.85    1.00
  YS02001790YS02001791 CONDUIT   1269.66     0  02:53      3.43    1.38    1.00
  YS02001791YS02001793 CONDUIT   1223.07     0  02:52      6.53    0.53    1.00
  YS02001910YS02001907 CONDUIT    594.41     0  03:01      0.76    0.34    1.00
  YS02001786YS02001788 CONDUIT   1151.13     0  02:55      2.45    2.22    1.00
  YS02001915YS02001910 CONDUIT    594.52     0  03:01      0.76    0.30    1.00
  YS02001918YS02001915 CONDUIT    260.74     0  02:52      0.44    0.14    1.00
  YS02001923YS02001920 CONDUIT    257.12     0  02:52      0.75    0.12    1.00
  YS02001926YS02001923 CONDUIT    230.28     0  02:52      0.86    0.33    0.93
  YS02001929YS02001926 CONDUIT    200.79     0  03:01      0.92    0.10    0.82
  YS02001920YS02001918 CONDUIT    259.98     0  02:52      0.72    0.25    1.00
  YS02001629YS02163301 CONDUIT    204.95     0  02:31      0.26    0.25    1.00
  YS02001619YS02001622 CONDUIT    381.20     0  03:01      0.59    0.56    1.00
  YS02001622YS02001625 CONDUIT    380.98     0  03:01      0.49    0.20    1.00
  YS02001625YS02001629 CONDUIT    197.75     0  02:39      0.25    0.09    1.00
  YS02163301YS02001633 CONDUIT    208.27     0  02:34      0.27    0.20    1.00
  YS02163601YS02164001 CONDUIT    417.09     0  02:39      0.53    0.37    1.00
  YS02164001YS02001641 CONDUIT    417.69     0  02:39      0.53    0.57    1.00
  YS02001641YS02001644 CONDUIT    418.58     0  02:39      0.53    1.35    1.00
  YS02001647YS02001649 CONDUIT    846.75     0  03:15      1.08    0.45    1.00
  YS02006553YS02006556 CONDUIT    719.02     0  02:51      0.92    0.62    1.00
  YS02006556YS02006558 CONDUIT    719.10     0  02:51      0.92    0.57    1.00
  YSB6556YSB1171       CONDUIT     42.84     0  03:02      0.13    0.04    0.82
  YS02001907YS02006553 CONDUIT    718.78     0  02:51      0.80    0.85    1.00
  YS02006558YS02006561 CONDUIT   1145.92     0  02:55      4.05    2.53    1.00
  YS02001633YS02163601 CONDUIT    416.10     0  02:39      0.53    0.44    1.00
  YS02001644YS02001647 CONDUIT    846.74     0  03:15      1.08    0.50    1.00
  YS02001745YS02001748 CONDUIT    600.74     0  02:32      1.46    0.23    0.98
  YS02001748YS02001751 CONDUIT    441.92     0  03:01      1.03    0.22    1.00
  YS02001751YS02001754 CONDUIT    441.54     0  03:01      0.88    0.21    1.00
  YS02001754YS02001757 CONDUIT    441.94     0  03:01      0.56    0.18    1.00
  YS02001882YS02001884 CONDUIT     16.19     0  04:09      0.12    0.02    1.00
  YS02001884YS02001887 CONDUIT     23.51     0  04:09      0.08    0.03    1.00
  YS02001890YS02001895 CONDUIT    517.56     0  03:03      0.66    0.24    1.00
  YS02001895YS02001898 CONDUIT    518.16     0  02:59      0.66    0.90    1.00
  YS02001898YS02001901 CONDUIT    517.90     0  02:59      0.66    0.33    1.00
  YS02001901YS02001904 CONDUIT    517.77     0  02:59      0.66    0.80    1.00
  YS02001904YS02001907 CONDUIT    517.85     0  02:59      0.66    0.18    1.00
  YS02001887YS02001890 CONDUIT    679.78     0  03:01      0.87    1.16    1.00
  YS02001652YS02001649 CONDUIT    499.14     0  03:01      0.64    0.25    1.00
  YS02001655YS02001652 CONDUIT    499.09     0  03:01      0.94    0.24    1.00
  YS02001658YS02001655 CONDUIT    498.84     0  03:01      1.18    0.21    1.00
  YS02001661YS02001658 CONDUIT    612.83     0  02:29      1.52    0.24    1.00
  YS02001664YS02001661 CONDUIT    665.57     0  02:43      1.43    0.21    0.77
  YSB1154YSB6556       CONDUIT     43.26     0  03:01      0.18    0.08    0.73
  YSB1174YSB1171       CONDUIT     36.63     0  03:01      0.11    0.06    0.85
  YSB1171HS02004479    CONDUIT     75.46     0  03:02      0.54    0.05    0.68
  HS02004881HS02006253 CONDUIT    140.48     0  03:01      2.14    0.03    0.51
  YS02001793JiankangQianchi CONDUIT   1184.65     0  02:52     16.54    0.09    1.00
  YS02001757CaochengTiaoxuchi CONDUIT   1675.50     0  02:40      2.17    0.74    1.00
  WSF200WS02003060     CONDUIT    869.85     0  03:01      1.88    0.19    0.43
  1                    CONDUIT   1261.60     0  03:07      3.54    0.44    0.46
  CC-Pump-1            PUMP       200.00     0  03:50              1.00
  CC-Pump-2            PUMP       199.95     0  03:50              1.00
  JK-Pump-1            PUMP       300.00     0  02:20              1.00
  JK-Pump-2            PUMP       683.00     0  02:30              1.00
  XR-Pump-1            PUMP        95.00     0  00:00              1.00
  XR-Pump-2            PUMP        95.00     0  00:00              1.00
  XR-Pump-3            PUMP        95.00     0  00:00              1.00
  XR-Pump-4            PUMP        95.00     0  00:00              1.00
  
  
  ***************************
  Flow Classification Summary
  ***************************
  
  -------------------------------------------------------------------------------------
                      Adjusted    ---------- Fraction of Time in Flow Class ---------- 
                       /Actual         Up    Down  Sub   Sup   Up    Down  Norm  Inlet 
  Conduit               Length    Dry  Dry   Dry   Crit  Crit  Crit  Crit  Ltd   Ctrl  
  -------------------------------------------------------------------------------------
  WS02003066WSF200        1.00   0.01  0.03  0.00  0.00  0.96  0.00  0.00  0.66  0.00
  WS02006287WS02006284    1.00   0.04  0.02  0.00  0.60  0.35  0.00  0.00  0.65  0.00
  WS02006284WS02006280    1.00   0.04  0.00  0.00  0.00  0.00  0.00  0.96  0.00  0.00
  WS02006280WS02006229    1.00   0.05  0.00  0.00  0.00  0.02  0.00  0.93  0.01  0.00
  WS02006229WS02006228    1.00   0.00  0.00  0.00  1.00  0.00  0.00  0.00  0.00  0.00
  WS02006256WS02006235    1.00   0.01  0.00  0.00  0.99  0.00  0.00  0.00  0.00  0.00
  WS02006253WS02006251    1.00   0.01  0.02  0.00  0.95  0.00  0.01  0.00  0.00  0.00
  WS02006252WS02006251    1.00   0.22  0.00  0.00  0.04  0.00  0.74  0.00  0.00  0.00
  WS02006251WS02006249    1.00   0.00  0.00  0.00  1.00  0.00  0.00  0.00  0.32  0.00
  WS02006249WS02006248    1.00   0.00  0.00  0.00  0.84  0.00  0.16  0.00  0.00  0.00
  WS02006248WS02006247    1.00   0.01  0.00  0.00  0.98  0.00  0.00  0.02  0.24  0.00
  WS02006247WS02006245    1.00   0.01  0.00  0.00  0.96  0.00  0.00  0.03  0.00  0.00
  WS02006245WS02006243    1.00   0.01  0.00  0.00  0.93  0.00  0.00  0.07  0.02  0.00
  WS02006243WS02006242    1.00   0.01  0.00  0.00  0.98  0.00  0.00  0.01  0.25  0.00
  WS02006242WS02006240    1.00   0.01  0.00  0.00  0.98  0.00  0.01  0.00  0.00  0.00
  WS02006240WS02006239    1.00   0.01  0.00  0.00  0.94  0.00  0.00  0.05  0.02  0.00
  WS02006239WS02006238    1.00   0.01  0.00  0.00  0.99  0.00  0.00  0.00  0.08  0.00
  WS02006238WS02006235    1.00   0.01  0.00  0.00  0.99  0.00  0.00  0.00  0.00  0.00
  WS02006235WS02006234    1.00   0.01  0.00  0.00  0.95  0.00  0.04  0.00  0.00  0.00
  WS02006234WS02006232    1.00   0.01  0.00  0.00  0.99  0.00  0.00  0.00  0.04  0.00
  WS02006232WS02006231    1.00   0.01  0.00  0.00  0.98  0.00  0.00  0.00  0.00  0.00
  WS02006231WS02006230    1.00   0.01  0.00  0.00  0.66  0.00  0.33  0.00  0.00  0.00
  WS02006230WS02006229    1.00   0.00  0.00  0.00  0.99  0.00  0.00  0.01  0.00  0.00
  WS02006228WS02006109    1.00   0.00  0.00  0.00  1.00  0.00  0.00  0.00  0.01  0.00
  WS02006116WS02004401    1.00   0.02  0.00  0.00  0.98  0.00  0.00  0.00  0.00  0.00
  WS02006115WS02006116    1.00   0.02  0.00  0.00  0.97  0.00  0.00  0.00  0.00  0.00
  WS02006113WS02006111    1.00   0.02  0.00  0.00  0.03  0.95  0.00  0.00  0.21  0.00
  WS02006112WS02006115    1.00   0.02  0.00  0.00  0.98  0.00  0.00  0.00  0.00  0.00
  WS02006111WS02006112    1.00   0.02  0.00  0.00  0.98  0.00  0.00  0.00  0.86  0.00
  WS02006110WS02006113    1.00   0.00  0.01  0.00  0.98  0.00  0.00  0.00  0.00  0.00
  WS02006109WS02006110    1.00   0.00  0.00  0.00  0.99  0.00  0.00  0.00  0.00  0.00
  WS02004411WS02004412    1.00   0.03  0.00  0.00  0.97  0.00  0.00  0.00  0.00  0.00
  WS02004401WS02004402    1.00   0.02  0.00  0.00  0.98  0.00  0.00  0.00  0.00  0.00
  WS02004413WS02003067    1.00   0.03  0.00  0.00  0.00  0.00  0.96  0.00  0.00  0.00
  WS02004412WS02004413    1.00   0.03  0.00  0.00  0.97  0.00  0.00  0.00  0.00  0.00
  WS02004410WS02004411    1.00   0.03  0.00  0.00  0.97  0.00  0.00  0.00  0.00  0.00
  WS02004409WS02004410    1.00   0.03  0.00  0.00  0.97  0.00  0.00  0.00  0.00  0.00
  WS02004407WS02004409    1.00   0.03  0.00  0.00  0.97  0.00  0.00  0.00  0.91  0.00
  WS02004406WS02004407    1.00   0.00  0.03  0.00  0.97  0.00  0.00  0.00  0.00  0.00
  WS02004405WS02004406    1.00   0.00  0.00  0.00  1.00  0.00  0.00  0.00  0.04  0.00
  WS02004404WS02004405    1.00   0.00  0.00  0.00  1.00  0.00  0.00  0.00  0.00  0.00
  WS02004403WS02004404    1.00   0.00  0.02  0.00  0.98  0.00  0.00  0.00  0.00  0.00
  WS02004402WS02004403    1.00   0.02  0.00  0.00  0.98  0.00  0.00  0.00  0.00  0.00
  WS02004139WS02001211    1.00   0.00  0.00  0.00  1.00  0.00  0.00  0.00  0.00  0.00
  WS02004138WS02004139    1.00   0.00  0.00  0.00  1.00  0.00  0.00  0.00  1.00  0.00
  WS02003067WS02003066    1.00   0.04  0.00  0.00  0.96  0.00  0.00  0.00  0.00  0.00
  WS02001213WS02003059    1.00   0.00  0.00  0.00  1.00  0.00  0.00  0.00  0.00  0.00
  WS02001212WS02001213    1.00   0.00  0.00  0.00  0.92  0.00  0.08  0.00  0.00  0.00
  WS02001211WS02001212    1.00   0.00  0.00  0.00  1.00  0.00  0.00  0.00  0.00  0.00
  WS02003072WS02003073    1.00   0.00  0.00  0.00  0.00  0.00  0.00  1.00  0.00  0.00
  WS02003069WS02003072    1.00   0.00  0.00  0.00  1.00  0.00  0.00  0.00  0.11  0.00
  WS02003060WS02003069    1.00   0.00  0.00  0.00  0.99  0.01  0.00  0.00  0.08  0.00
  WS02003059WS02003060    1.00   0.00  0.00  0.00  1.00  0.00  0.00  0.00  0.00  0.00
  HS02004901HS02004770    1.00   0.04  0.00  0.00  0.96  0.00  0.00  0.00  0.00  0.00
  HS02004876HS02004881    1.00   0.01  0.00  0.00  0.90  0.09  0.00  0.00  0.00  0.00
  HS02004870HS02004876    1.00   0.00  0.00  0.00  1.00  0.00  0.00  0.00  0.95  0.00
  HS02004842HS02004848    1.00   0.00  0.04  0.00  0.96  0.00  0.00  0.00  0.54  0.00
  HS02004837HS02004842    1.00   0.00  0.00  0.00  1.00  0.00  0.00  0.00  0.11  0.00
  HS02004830HS02004837    1.00   0.00  0.00  0.00  1.00  0.00  0.00  0.00  0.99  0.00
  HS02004824HS02004830    1.00   0.00  0.00  0.00  1.00  0.00  0.00  0.00  0.01  0.00
  HS02004817HS02004824    1.00   0.00  0.00  0.00  1.00  0.00  0.00  0.00  0.97  0.00
  HS02004770HS02004777    1.00   0.00  0.04  0.00  0.96  0.00  0.00  0.00  0.03  0.00
  HS02004799HS02004480    1.00   0.00  0.01  0.00  0.95  0.00  0.04  0.00  0.00  0.00
  HS02004792HS02004799    1.00   0.00  0.00  0.00  1.00  0.00  0.00  0.00  0.98  0.00
  HS02004788HS02004792    1.00   0.00  0.00  0.00  1.00  0.00  0.00  0.00  0.98  0.00
  HS02004785HS02004788    1.00   0.00  0.00  0.00  1.00  0.00  0.00  0.00  0.00  0.00
  HS02004777HS02004785    1.00   0.00  0.00  0.00  1.00  0.00  0.00  0.00  0.12  0.00
  HS02004480HS02004478    1.00   0.04  0.00  0.00  0.69  0.00  0.00  0.27  0.00  0.00
  HS02004479HS02004480    1.00   0.01  0.00  0.00  0.99  0.00  0.00  0.00  0.12  0.00
  HS02004862HS02004870    1.00   0.00  0.00  0.00  1.00  0.00  0.00  0.00  0.04  0.00
  HS02004848HS02004852    1.00   0.04  0.00  0.00  0.96  0.00  0.00  0.00  0.64  0.00
  HS02004856HS02004862    1.00   0.00  0.05  0.00  0.95  0.00  0.00  0.00  0.83  0.00
  HS02004852HS02004856    1.00   0.04  0.00  0.00  0.95  0.00  0.00  0.00  0.81  0.00
  HS02004802HS02004478    1.00   0.04  0.00  0.00  0.95  0.00  0.00  0.00  0.02  0.00
  HS02004478WS02006287    1.00   0.05  0.00  0.00  0.74  0.21  0.00  0.00  0.65  0.00
  HS02004817HS02004807    1.00   0.00  0.04  0.00  0.96  0.00  0.00  0.00  0.01  0.00
  HS02004807HS02004802    1.00   0.04  0.00  0.00  0.95  0.00  0.00  0.00  0.00  0.00
  YS02001759YS02001757    1.00   0.00  0.00  0.00  1.00  0.00  0.00  0.00  0.16  0.00
  YS02001762YS02001759    1.00   0.00  0.00  0.00  1.00  0.00  0.00  0.00  0.03  0.00
  YS02001765YS02001762    1.00   0.00  0.00  0.00  1.00  0.00  0.00  0.00  0.14  0.00
  YS02001770YS02001767    1.00   0.00  0.00  0.00  1.00  0.00  0.00  0.00  0.00  0.00
  YS02001774YS02001770    1.00   0.00  0.04  0.00  0.96  0.00  0.00  0.00  0.03  0.00
  YS02001779YS02001774    1.00   0.00  0.00  0.00  1.00  0.00  0.00  0.00  0.19  0.00
  YS02001649YS02001757    1.00   0.00  0.00  0.00  1.00  0.00  0.00  0.00  0.16  0.00
  YS02001767YS02001765    1.00   0.00  0.00  0.00  1.00  0.00  0.00  0.00  0.00  0.00
  YS02006561YS02001783    1.00   0.06  0.00  0.00  0.38  0.56  0.00  0.00  0.48  0.00
  YS02001783YS02001784    1.00   0.00  0.06  0.00  0.94  0.00  0.00  0.00  0.00  0.00
  YS02001784YS02001785    1.00   0.00  0.00  0.00  1.00  0.00  0.00  0.00  0.18  0.00
  YS02001788YS02001790    1.00   0.00  0.00  0.00  0.40  0.60  0.00  0.00  0.37  0.00
  YS02001790YS02001791    1.00   0.00  0.00  0.00  0.34  0.66  0.00  0.00  0.44  0.00
  YS02001791YS02001793    1.00   0.00  0.00  0.00  0.37  0.63  0.00  0.00  0.03  0.00
  YS02001910YS02001907    1.00   0.00  0.00  0.00  0.99  0.00  0.00  0.01  0.12  0.00
  YS02001786YS02001788    1.00   0.00  0.00  0.00  0.39  0.61  0.00  0.00  0.00  0.00
  YS02001915YS02001910    1.00   0.00  0.00  0.00  0.99  0.01  0.00  0.00  0.16  0.00
  YS02001918YS02001915    1.00   0.00  0.00  0.00  0.99  0.00  0.00  0.00  0.53  0.00
  YS02001923YS02001920    1.00   0.00  0.00  0.00  1.00  0.00  0.00  0.00  0.82  0.00
  YS02001926YS02001923    1.00   0.00  0.02  0.00  0.14  0.00  0.83  0.00  0.00  0.00
  YS02001929YS02001926    1.00   0.00  0.04  0.00  0.96  0.00  0.00  0.00  0.75  0.00
  YS02001920YS02001918    1.00   0.00  0.00  0.00  1.00  0.00  0.00  0.00  0.00  0.00
  YS02001629YS02163301    1.00   0.05  0.00  0.00  0.95  0.00  0.00  0.00  0.00  0.00
  YS02001619YS02001622    1.00   0.04  0.00  0.00  0.96  0.00  0.00  0.00  0.00  0.00
  YS02001622YS02001625    1.00   0.04  0.00  0.00  0.96  0.00  0.00  0.00  0.05  0.00
  YS02001625YS02001629    1.00   0.04  0.02  0.00  0.92  0.00  0.02  0.00  0.00  0.00
  YS02163301YS02001633    1.00   0.00  0.05  0.00  0.95  0.00  0.00  0.00  0.00  0.00
  YS02163601YS02164001    1.00   0.00  0.03  0.00  0.97  0.00  0.00  0.00  0.00  0.00
  YS02164001YS02001641    1.00   0.00  0.03  0.00  0.97  0.00  0.00  0.00  0.06  0.00
  YS02001641YS02001644    1.00   0.00  0.00  0.00  1.00  0.00  0.00  0.00  0.00  0.00
  YS02001647YS02001649    1.00   0.00  0.06  0.00  0.94  0.00  0.00  0.00  0.01  0.00
  YS02006553YS02006556    1.00   0.00  0.00  0.00  1.00  0.00  0.00  0.00  0.03  0.00
  YS02006556YS02006558    1.00   0.00  0.00  0.00  1.00  0.00  0.00  0.00  0.00  0.00
  YSB6556YSB1171          1.00   0.01  0.03  0.00  0.96  0.00  0.00  0.00  0.00  0.00
  YS02001907YS02006553    1.00   0.00  0.01  0.00  0.99  0.00  0.00  0.00  0.00  0.00
  YS02006558YS02006561    1.00   0.06  0.00  0.00  0.13  0.81  0.00  0.00  0.47  0.00
  YS02001633YS02163601    1.00   0.00  0.00  0.00  1.00  0.00  0.00  0.00  0.15  0.00
  YS02001644YS02001647    1.00   0.00  0.06  0.00  0.94  0.00  0.00  0.00  0.00  0.00
  YS02001745YS02001748    1.00   0.00  0.00  0.00  0.89  0.01  0.00  0.10  0.04  0.00
  YS02001748YS02001751    1.00   0.00  0.00  0.00  0.96  0.04  0.00  0.00  0.15  0.00
  YS02001751YS02001754    1.00   0.00  0.00  0.00  0.93  0.00  0.00  0.07  0.02  0.00
  YS02001754YS02001757    1.00   0.00  0.00  0.00  1.00  0.00  0.00  0.00  0.18  0.00
  YS02001882YS02001884    1.00   0.05  0.00  0.00  0.95  0.00  0.00  0.00  0.00  0.00
  YS02001884YS02001887    1.00   0.02  0.02  0.00  0.96  0.00  0.00  0.00  0.00  0.00
  YS02001890YS02001895    1.00   0.00  0.05  0.00  0.95  0.00  0.00  0.00  0.00  0.00
  YS02001895YS02001898    1.00   0.05  0.00  0.00  0.94  0.00  0.01  0.00  0.00  0.00
  YS02001898YS02001901    1.00   0.05  0.00  0.00  0.95  0.00  0.00  0.00  0.01  0.00
  YS02001901YS02001904    1.00   0.05  0.00  0.00  0.95  0.00  0.00  0.00  0.00  0.00
  YS02001904YS02001907    1.00   0.00  0.05  0.00  0.95  0.00  0.00  0.00  0.00  0.00
  YS02001887YS02001890    1.00   0.00  0.00  0.00  0.99  0.00  0.01  0.00  0.00  0.00
  YS02001652YS02001649    1.00   0.00  0.00  0.00  1.00  0.00  0.00  0.00  0.17  0.00
  YS02001655YS02001652    1.00   0.00  0.00  0.00  0.93  0.00  0.00  0.06  0.02  0.00
  YS02001658YS02001655    1.00   0.00  0.05  0.00  0.92  0.03  0.00  0.00  0.10  0.00
  YS02001661YS02001658    1.00   0.05  0.00  0.00  0.89  0.06  0.00  0.00  0.11  0.00
  YS02001664YS02001661    1.00   0.04  0.00  0.00  0.91  0.05  0.00  0.00  0.20  0.00
  YSB1154YSB6556          1.00   0.04  0.00  0.00  0.96  0.00  0.00  0.00  0.02  0.00
  YSB1174YSB1171          1.00   0.01  0.02  0.00  0.97  0.00  0.00  0.00  0.00  0.00
  YSB1171HS02004479       1.00   0.01  0.00  0.00  0.98  0.00  0.00  0.00  0.10  0.00
  HS02004881HS02006253    1.00   0.02  0.00  0.00  0.44  0.04  0.00  0.50  0.30  0.00
  YS02001793JiankangQianchi    1.00   0.00  0.00  0.00  0.68  0.32  0.00  0.00  0.45  0.00
  YS02001757CaochengTiaoxuchi    1.00   0.00  0.08  0.00  0.92  0.00  0.00  0.00  0.00  0.00
  WSF200WS02003060        1.00   0.00  0.01  0.00  0.97  0.02  0.00  0.00  0.54  0.00
  1                       1.00   0.00  0.00  0.00  0.00  1.00  0.00  0.00  0.50  0.00
  
  
  *************************
  Conduit Surcharge Summary
  *************************
  
  ----------------------------------------------------------------------------
                                                           Hours        Hours 
                         --------- Hours Full --------   Above Full   Capacity
  Conduit                Both Ends  Upstream  Dnstream   Normal Flow   Limited
  ----------------------------------------------------------------------------
  WS02006229WS02006228        2.51      2.70      2.51      4.20         2.51
  WS02006256WS02006235        5.45      5.45      6.92      4.42         0.01
  WS02006253WS02006251        0.53      0.53      0.58      0.01         0.03
  WS02006252WS02006251        0.34      0.34      0.76      0.64         0.01
  WS02006251WS02006249        0.54      0.54      0.67      0.18         0.06
  WS02006249WS02006248        0.61      0.61      0.67      1.17         0.01
  WS02006248WS02006247        0.68      0.68      0.85      0.01         0.01
  WS02006247WS02006245        0.86      0.87      0.86      1.99         0.76
  WS02006245WS02006243        0.88      0.88      0.96      0.06         0.03
  WS02006243WS02006242        0.99      0.99      1.28      0.01         0.01
  WS02006242WS02006240        1.25      1.25      1.45      0.67         0.01
  WS02006240WS02006239        1.29      1.29      1.49      0.18         0.10
  WS02006239WS02006238        1.65      1.65      1.92      0.23         0.15
  WS02006238WS02006235        1.89      1.89      2.17      0.01         0.02
  WS02006235WS02006234        1.61      1.61      1.83      5.38         0.01
  WS02006234WS02006232        1.70      1.70      2.42      0.28         0.29
  WS02006232WS02006231        1.23      1.23      2.42      0.40         0.01
  WS02006231WS02006230        0.87      0.87      1.31      5.57         0.01
  WS02006230WS02006229        3.59      4.02      3.59      5.90         3.59
  WS02006228WS02006109        2.59      3.14      2.59      4.67         2.59
  WS02006116WS02004401        0.38      0.38      0.38      0.32         0.32
  WS02006115WS02006116        0.26      0.26      0.26      0.22         0.22
  WS02006113WS02006111        0.01      0.01      0.01      0.05         0.01
[...]
  YS02001770YS02001767        5.69      5.69      5.69      0.62         0.57
  YS02001774YS02001770        5.68      5.68      5.74      0.01         0.01
  YS02001779YS02001774        5.56      5.56      5.74      0.01         0.01
  YS02001649YS02001757        5.76      5.76      5.86      0.01         0.01
  YS02001767YS02001765        5.69      5.69      5.72      0.01         0.01
  YS02006561YS02001783        0.87      0.87      1.31      0.01         0.01
  YS02001783YS02001784        1.27      1.31      1.28      1.56         1.16
  YS02001784YS02001785        1.09      1.28      1.09      2.48         1.09
  YS02001788YS02001790        0.91      0.91      1.85      0.01         0.01
  YS02001790YS02001791        1.84      1.85      1.94      1.12         0.90
  YS02001791YS02001793        1.94      1.94      2.36      0.01         0.01
  YS02001910YS02001907        1.24      1.24      1.88      0.01         0.01
  YS02001786YS02001788        0.91      1.09      0.91      2.11         0.90
  YS02001915YS02001910        1.05      1.05      1.24      0.01         0.01
  YS02001918YS02001915        0.86      0.86      1.05      0.01         0.01
  YS02001923YS02001920        0.72      0.72      0.89      0.01         0.01
  YS02001920YS02001918        0.86      0.86      0.89      0.01         0.01
  YS02001629YS02163301        5.67      5.67      5.68      0.01         0.01
  YS02001619YS02001622        5.37      5.37      5.40      0.01         0.01
  YS02001622YS02001625        5.40      5.40      5.64      0.01         0.01
  YS02001625YS02001629        5.38      5.38      5.64      0.01         0.01
  YS02163301YS02001633        5.68      5.68      5.72      0.01         0.01
  YS02163601YS02164001        5.72      5.72      5.75      0.01         0.01
  YS02164001YS02001641        5.72      5.72      5.73      0.01         0.03
  YS02001641YS02001644        5.73      5.73      5.73      1.72         1.96
  YS02001647YS02001649        5.62      5.62      5.76      0.01         0.01
  YS02006553YS02006556        1.47      1.47      1.97      0.01         0.01
  YS02006556YS02006558        1.66      1.66      2.05      0.01         0.01
  YSB6556YSB1171              0.01      0.01      0.07      0.01         0.01
  YS02001907YS02006553        2.55      2.55      2.77      0.01         0.01
  YS02006558YS02006561        0.98      1.43      0.98      2.35         0.98
  YS02001633YS02163601        5.71      5.71      5.75      0.01         0.01
  YS02001644YS02001647        5.62      5.62      5.73      0.01         0.01
  YS02001745YS02001748        0.01      0.01      5.22      0.01         0.01
  YS02001748YS02001751        5.27      5.27      5.37      0.01         0.01
  YS02001751YS02001754        5.37      5.37      5.58      0.01         0.01
  YS02001754YS02001757        5.61      5.61      5.86      0.01         0.01
  YS02001882YS02001884        1.07      1.07      1.09      0.01         0.01
  YS02001884YS02001887        1.14      1.14      1.17      0.01         0.01
  YS02001890YS02001895        1.04      1.04      1.26      0.01         0.01
  YS02001895YS02001898        1.03      1.03      1.04      0.01         0.01
  YS02001898YS02001901        1.04      1.04      1.13      0.01         0.01
  YS02001901YS02001904        1.11      1.11      1.13      0.01         0.01
  YS02001904YS02001907        1.11      1.11      2.01      0.01         0.01
  YS02001887YS02001890        1.20      1.20      1.23      0.16         0.01
  YS02001652YS02001649        5.63      5.63      5.76      0.01         0.01
  YS02001655YS02001652        5.39      5.39      5.61      0.01         0.01
  YS02001658YS02001655        5.25      5.25      5.39      0.01         0.01
  YS02001661YS02001658        0.08      0.08      5.25      0.01         0.01
  YS02001664YS02001661        0.01      0.01      1.23      0.01         0.01
  HS02004881HS02006253        0.01      0.01      0.14      0.01         0.01
  YS02001793JiankangQianchi        2.25      2.25      4.72      0.01         0.01
  YS02001757CaochengTiaoxuchi        5.12      5.12      5.86      0.01         0.01
  
  
  ***************
  Pumping Summary
  ***************
  
  ---------------------------------------------------------------------------------------------------------
                                                  Min       Avg       Max     Total     Power    % Time Off
                        Percent   Number of      Flow      Flow      Flow    Volume     Usage    Pump Curve
  Pump                 Utilized   Start-Ups       LPS       LPS       LPS  10^6 ltr     Kw-hr    Low   High
  ---------------------------------------------------------------------------------------------------------
  CC-Pump-1               38.30           4      0.00    133.33    200.00     1.320      1.03    0.0    0.0
  CC-Pump-2               17.01           3      0.00     94.59    199.95     0.480      0.52    0.0    0.0
  JK-Pump-1               61.70           5      0.00    228.31    300.00     3.751     54.81    0.0    0.0
  JK-Pump-2               48.93           4      0.00    417.02    683.00     5.788     80.63    0.0   97.4
  XR-Pump-1              100.00           1      0.00     95.00     95.00     2.679     26.92    0.0    0.0
  XR-Pump-2               97.87           2      0.00     91.80     95.00     2.451     22.19    0.0    0.0
  XR-Pump-3               93.62           4      0.00     92.04     95.00     2.337     19.70    0.0    0.0
  XR-Pump-4               93.62           4      0.00     92.04     95.00     2.337     19.70    0.0    0.0
  
  
  ***************************
  Link Pollutant Load Summary
  ***************************
  
  ------------------------------------------------------------------------------------------
                                 COD            SS            TN            TP         NH4-N
  Link                            kg            kg            kg            kg            kg
  ------------------------------------------------------------------------------------------
  WS02003066WSF200           760.693      1424.593        20.375         1.811        10.788
  WS02006287WS02006284       319.422       607.990        10.313         1.015         5.678
  WS02006284WS02006280       319.901       608.773        10.359         1.020         5.706
  WS02006280WS02006229       319.874       608.718        10.357         1.020         5.705
  WS02006229WS02006228       751.450      1407.736        19.770         1.736        10.420
  WS02006256WS02006235       223.361       409.967         5.035         0.397         2.560
  WS02006253WS02006251        61.722       121.305         1.331         0.098         0.656
  WS02006252WS02006251       156.690       285.891         3.292         0.240         1.623
  WS02006251WS02006249       210.896       393.526         4.475         0.329         2.208
  WS02006249WS02006248       209.107       390.261         4.435         0.326         2.188
  WS02006248WS02006247       209.455       390.908         4.446         0.327         2.194
  WS02006247WS02006245       209.380       390.787         4.444         0.326         2.193
  WS02006245WS02006243       208.896       389.931         4.430         0.325         2.186
  WS02006243WS02006242       209.480       391.029         4.446         0.327         2.194
  WS02006242WS02006240       210.219       392.358         4.455         0.327         2.197
  WS02006240WS02006239       211.862       395.284         4.494         0.330         2.217
  WS02006239WS02006238       214.727       400.218         4.581         0.338         2.264
  WS02006238WS02006235       216.895       403.887         4.646         0.344         2.300
  WS02006235WS02006234       432.997       801.274         9.479         0.723         4.753
  WS02006234WS02006232       432.993       801.259         9.484         0.724         4.756
  WS02006232WS02006231       432.765       800.848         9.477         0.723         4.752
  WS02006231WS02006230       432.748       800.830         9.478         0.723         4.753
  WS02006230WS02006229       432.323       800.197         9.462         0.722         4.744
  WS02006228WS02006109       750.656      1406.374        19.721         1.731        10.390
  WS02006116WS02004401       765.957      1434.081        20.505         1.822        10.855
  WS02006115WS02006116       766.694      1435.353        20.531         1.825        10.870
  WS02006113WS02006111       756.911      1416.023        20.412         1.818        10.826
  WS02006112WS02006115       767.460      1436.627        20.569         1.829        10.892
  WS02006111WS02006112       756.523      1415.466        20.391         1.816        10.813
  WS02006110WS02006113       757.400      1416.930        20.435         1.821        10.839
  WS02006109WS02006110       758.516      1418.850        20.503         1.829        10.879
  WS02004411WS02004412       762.296      1427.346        20.447         1.819        10.830
  WS02004401WS02004402       765.148      1432.699        20.470         1.818        10.835
  WS02004413WS02003067       760.903      1425.036        20.379         1.812        10.790
  WS02004412WS02004413       761.782      1426.462        20.426         1.817        10.818
  WS02004410WS02004411       762.662      1428.008        20.459         1.820        10.837
  WS02004409WS02004410       763.063      1428.706        20.475         1.822        10.846
  WS02004407WS02004409       763.264      1429.097        20.478         1.822        10.847
  WS02004406WS02004407       763.191      1429.047        20.469         1.821        10.842
  WS02004405WS02004406       764.226      1430.837        20.525         1.827        10.875
  WS02004404WS02004405       764.500      1431.416        20.508         1.825        10.863
  WS02004403WS02004404       763.810      1430.378        20.417         1.813        10.805
  WS02004402WS02004403       764.470      1431.506        20.446         1.816        10.821
  WS02004139WS02001211      1370.635      2276.149       111.199        13.573        68.542
  WS02004138WS02004139      1376.681      2286.257       111.663        13.629        68.827
  WS02003067WS02003066       760.770      1424.729        20.378         1.812        10.790
  WS02001213WS02003059      1404.701      2329.730       114.716        14.016        70.751
  WS02001212WS02001213      1413.238      2343.890       115.404        14.100        71.175
  WS02001211WS02001212      1415.198      2347.089       115.573        14.121        71.280
  WS02003072WS02003073      2267.092      3916.193       145.090        17.082        87.799
  WS02003069WS02003072      2271.518      3923.326       145.476        17.129        88.039
  WS02003060WS02003069      2273.929      3927.419       145.642        17.149        88.140
  WS02003059WS02003060      1402.060      2325.241       114.533        13.995        70.640
  HS02004901HS02004770        13.092        25.471         0.248         0.019         0.116
  HS02004876HS02004881        45.508        90.331         0.999         0.073         0.491
  HS02004870HS02004876        34.377        68.093         0.798         0.060         0.395
  HS02004842HS02004848         6.456        12.343         0.134         0.009         0.062
  HS02004837HS02004842        11.054        19.633         0.603         0.068         0.356
  HS02004830HS02004837        70.292       122.715         4.643         0.552         2.826
  HS02004824HS02004830        71.062       123.968         4.715         0.561         2.871
  HS02004817HS02004824        97.154       176.388         5.254         0.596         3.134
  HS02004770HS02004777        49.656        97.699         1.021         0.069         0.472
  HS02004799HS02004480       162.297       310.776         4.262         0.379         2.209
  HS02004792HS02004799       147.253       280.077         4.028         0.367         2.105
  HS02004788HS02004792        82.807       157.663         2.665         0.255         1.440
  HS02004785HS02004788        51.113       100.031         1.172         0.089         0.567
  HS02004777HS02004785        50.438        98.926         1.112         0.081         0.530
  HS02004480HS02004478       204.781       395.097         4.971         0.429         2.543
  HS02004479HS02004480        46.122        90.102         1.037         0.091         0.538
  HS02004862HS02004870        25.796        50.332         0.628         0.050         0.314
  HS02004848HS02004852        10.251        19.883         0.210         0.014         0.097
  HS02004856HS02004862        17.522        34.744         0.350         0.023         0.164
  HS02004852HS02004856        10.254        19.887         0.210         0.014         0.097
  HS02004802HS02004478       115.324       214.018         5.397         0.592         3.168
  HS02004478WS02006287       319.634       608.359        10.330         1.017         5.688
  HS02004817HS02004807        95.847       174.291         5.129         0.580         3.056
  HS02004807HS02004802       115.583       214.423         5.429         0.596         3.189
  YS02001759YS02001757       305.597       559.841         6.119         0.427         2.993
  YS02001762YS02001759       192.352       356.886         3.965         0.281         1.956
  YS02001765YS02001762       193.823       360.474         4.017         0.286         1.984
  YS02001770YS02001767       195.482       365.627         3.888         0.263         1.892
  YS02001774YS02001770       310.207       600.766         5.968         0.398         2.885
  YS02001779YS02001774       309.603       599.575         6.061         0.413         2.949
  YS02001649YS02001757       388.719       708.017         7.831         0.536         3.775
  YS02001767YS02001765       195.364       364.053         4.067         0.290         2.012
  YS02006561YS02001783      1032.941      1915.468        21.629         1.614        10.761
  YS02001783YS02001784      1032.832      1915.304        21.625         1.613        10.759
  YS02001784YS02001785      1040.175      1927.077        22.338         1.703        11.205
  YS02001788YS02001790      1040.850      1928.203        22.412         1.712        11.252
  YS02001790YS02001791      1041.879      1929.911        22.512         1.725        11.314
  YS02001791YS02001793      1041.864      1929.904        22.508         1.724        11.312
  YS02001910YS02001907       391.284       721.719         9.387         0.718         4.809
  YS02001786YS02001788      1040.413      1927.499        22.367         1.706        11.223
  YS02001915YS02001910       391.345       721.815         9.339         0.711         4.777
  YS02001918YS02001915       186.195       328.460         5.124         0.466         2.759
  YS02001923YS02001920       165.528       295.012         3.164         0.222         1.535
  YS02001926YS02001923       164.476       293.247         3.098         0.214         1.495
  YS02001929YS02001926       164.243       292.859         3.066         0.210         1.475
  YS02001920YS02001918       185.335       326.698         5.078         0.461         2.732
  YS02001629YS02163301        96.137       170.000         2.029         0.131         0.947
  YS02001619YS02001622       175.878       321.143         3.602         0.236         1.684
  YS02001622YS02001625       174.675       319.228         3.573         0.234         1.670
  YS02001625YS02001629        97.226       171.781         2.054         0.132         0.958
  YS02163301YS02001633        96.490       170.850         2.031         0.132         0.949
  YS02163601YS02164001       405.794       733.287         7.900         0.562         3.784
  YS02164001YS02001641       405.257       732.377         7.879         0.560         3.773
  YS02001641YS02001644       405.333       732.430         7.875         0.560         3.770
  YS02001647YS02001649       491.548       906.314         9.791         0.677         4.688
  YS02006553YS02006556       698.914      1285.694        15.001         1.148         7.547
  YS02006556YS02006558       698.892      1285.644        14.973         1.144         7.528
  YSB6556YSB1171              26.518        51.960         0.537         0.045         0.271
  YS02001907YS02006553       698.979      1285.835        15.008         1.149         7.552
  YS02006558YS02006561      1032.937      1915.461        21.628         1.614        10.760
  YS02001633YS02163601       406.510       734.400         7.881         0.558         3.768
  YS02001644YS02001647       497.608       917.309         9.882         0.683         4.729
  YS02001745YS02001748       249.695       466.922         5.470         0.377         2.715
  YS02001748YS02001751       248.037       463.706         5.534         0.389         2.765
  YS02001751YS02001754       247.012       462.017         5.513         0.388         2.755
  YS02001754YS02001757       247.777       463.167         5.678         0.410         2.862
  YS02001882YS02001884         2.288         3.921         0.047         0.004         0.024
  YS02001884YS02001887         6.868        12.165         0.135         0.011         0.067
  YS02001890YS02001895       451.138       846.777         8.305         0.625         4.051
  YS02001895YS02001898       451.018       846.645         8.299         0.624         4.048
  YS02001898YS02001901       450.861       846.380         8.296         0.624         4.046
  YS02001901YS02001904       450.747       846.241         8.303         0.625         4.051
  YS02001904YS02001907       450.997       846.634         8.356         0.632         4.085
  YS02001887YS02001890       468.402       881.011         8.648         0.653         4.224
  YS02001652YS02001649       204.626       380.015         4.122         0.297         1.933
  YS02001655YS02001652       205.128       380.841         4.135         0.298         1.939
  YS02001658YS02001655       204.471       379.801         4.045         0.286         1.881
  YS02001661YS02001658       207.855       385.890         4.113         0.291         1.912
  YS02001664YS02001661       219.212       404.112         4.377         0.308         2.033
  YSB1154YSB6556              26.082        51.265         0.486         0.038         0.239
  YSB1174YSB1171              18.018        35.556         0.361         0.029         0.181
  YSB1171HS02004479           46.086        90.045         1.040         0.092         0.540
  HS02004881HS02006253        51.253       101.976         1.104         0.080         0.541
  YS02001793JiankangQianchi      1041.799      1929.705        22.489         1.721        11.299
  YS02001757CaochengTiaoxuchi       526.664       955.151        11.127         0.805         5.483
  WSF200WS02003060           760.692      1424.532        20.378         1.812        10.790
  1                         2272.646      3924.215       145.780        17.170        88.237
  CC-Pump-1                  114.021       207.898         2.393         0.174         1.179
  CC-Pump-2                   42.291        77.291         0.885         0.065         0.436
  JK-Pump-1                  254.992       468.020         5.705         0.448         2.895
  JK-Pump-2                  489.669       913.511        10.047         0.744         4.977
  XR-Pump-1                  392.338       648.699        32.505         3.980        20.072
  XR-Pump-2                  344.686       572.436        27.951         3.411        17.228
  XR-Pump-3                  321.634       535.544        25.752         3.137        15.855
  XR-Pump-4                  321.634       535.544        25.752         3.137        15.855
  

  Analysis begun on:  Thu Jul 15 15:57:59 2021
  Analysis ended on:  Thu Jul 15 15:58:01 2021
  Total elapsed time: 00:00:02