
  EPA STORM WATER MANAGEMENT MODEL - VERSION 5.1 (Build 5.3.0.dev0)
  --------------------------------------------------------------

  WARNING 04: minimum elevation drop used for Conduit WS02004404WS02004405
  WARNING 03: negative offset ignored for Link YS02001904YS02001907
  
  *********************************************************
  NOTE: The summary statistics displayed in this report are
  based on results found at every computational time step,  
  not just on results from each reporting time step.
  *********************************************************
  
  ****************
  Analysis Options
  ****************
  Flow Units ............... LPS
  Process Models:
    Rainfall/Runoff ........ YES
    RDII ................... NO
    Snowmelt ............... NO
    Groundwater ............ NO
    Flow Routing ........... YES
    Ponding Allowed ........ NO
    Water Quality .......... YES
  Infiltration Method ...... HORTON
  Flow Routing Method ...... DYNWAVE
  Surcharge Method ......... EXTRAN
  Starting Date ............ 08/28/2015 08:00:00
  Ending Date .............. 08/28/2015 15:50:00
  Antecedent Dry Days ...... 8.0
  Report Time Step ......... 00:01:00
  Wet Time Step ............ 00:01:00
  Dry Time Step ............ 00:01:00
  Routing Time Step ........ 5.00 sec
  Variable Time Step ....... YES
  Maximum Trials ........... 8
  Number of Threads ........ 4
  Head Tolerance ........... 0.001500 m
  
  
  **************************        Volume         Depth
  Runoff Quantity Continuity     hectare-m            mm
  **************************     ---------       -------
  Total Precipitation ......         6.144        13.452
  Evaporation Loss .........         0.000         0.000
  Infiltration Loss ........         1.064         2.328
  Surface Runoff ...........         4.147         9.079
  Final Storage ............         0.935         2.047
  Continuity Error (%) .....        -0.020
  
  
  **************************           COD            SS            TN            TP         NH4-N
  Runoff Quality Continuity             kg            kg            kg            kg            kg
  **************************    ----------    ----------    ----------    ----------    ----------
  Initial Buildup ..........     41378.656     70582.865      1804.177       168.684      1032.807
  Surface Buildup ..........        21.799        40.924         2.400         0.218         1.395
  Wet Deposition ...........         0.000         0.000         0.000         0.000         0.000
  Sweeping Removal .........         0.000         0.000         0.000         0.000         0.000
  Infiltration Loss ........        97.311       184.943         1.849         0.130         0.881
  BMP Removal ..............         0.000         0.000         0.000         0.000         0.000
  Surface Runoff ...........      3769.819      7064.251        72.781         4.964        34.599
  Remaining Buildup ........     37531.916     63371.884      1731.919       163.806       998.709
  Continuity Error (%) .....         0.003         0.004         0.002         0.001         0.001
  
  
  **************************        Volume        Volume
  Flow Routing Continuity        hectare-m      10^6 ltr
  **************************     ---------     ---------
  Dry Weather Inflow .......         0.616         6.165
  Wet Weather Inflow .......         4.145        41.451
  Groundwater Inflow .......         0.000         0.000
  RDII Inflow ..............         0.000         0.000
  External Inflow ..........         0.102         1.024
  External Outflow .........         1.954        19.537
  Flooding Loss ............         2.447        24.470
  Evaporation Loss .........         0.000         0.000
  Exfiltration Loss ........         0.000         0.000
  Initial Stored Volume ....         0.076         0.761
  Final Stored Volume ......         0.656         6.564
  Continuity Error (%) .....        -2.370
  
  
  **************************           COD            SS            TN            TP         NH4-N
  Quality Routing Continuity            kg            kg            kg            kg            kg
  **************************    ----------    ----------    ----------    ----------    ----------
  Dry Weather Inflow .......      1541.201      2465.922       147.955        18.494        92.472
  Wet Weather Inflow .......      3769.022      7062.918        72.763         4.963        34.591
  Groundwater Inflow .......         0.000         0.000         0.000         0.000         0.000
  RDII Inflow ..............         0.000         0.000         0.000         0.000         0.000
  External Inflow ..........       183.418       293.469        17.608         2.201        11.005
  External Outflow .........      2373.249      4107.071       148.412        17.396        89.625
  Flooding Loss ............      2440.918      4544.270        62.585         5.450        32.870
  Exfiltration Loss ........         0.000         0.000         0.000         0.000         0.000
  Mass Reacted .............         0.000         0.000         0.000         0.000         0.000
  Initial Stored Mass ......         0.000         0.000         0.000         0.000         0.000
  Final Stored Mass ........       552.843       954.179        24.305         2.581        14.050
  Continuity Error (%) .....         2.305         2.207         1.269         0.900         1.103
  
  
  *************************
  Highest Continuity Errors
  *************************
  Node HS02004842 (13.41%)
  Node JK-storage (-10.80%)
  Node YS02001884 (10.20%)
  Node HS02004817 (2.53%)
  Node YSB1171 (2.46%)
  
  
  ***************************
  Time-Step Critical Elements
  ***************************
  Link WS02006252WS02006251 (62.80%)
  Link WS02006280WS02006229 (11.72%)
  Link WS02006238WS02006235 (7.48%)
  Link YS02001793JiankangQianchi (3.94%)
  Link YS02006556YS02006558 (2.27%)
  
  
  ********************************
  Highest Flow Instability Indexes
  ********************************
  Link WS02006113WS02006111 (38)
  Link YS02163601YS02164001 (30)
  Link YS02163301YS02001633 (30)
  Link YS02001629YS02163301 (30)
  Link YS02001619YS02001622 (29)
  
  
  *************************
  Routing Time Step Summary
  *************************
  Minimum Time Step           :     0.50 sec
  Average Time Step           :     1.21 sec
  Maximum Time Step           :     5.00 sec
  Percent in Steady State     :    -0.00
  Average Iterations per Step :     3.86
  Percent Not Converging      :    15.68
  
  
  ***************************
  Subcatchment Runoff Summary
  ***************************
  
  ------------------------------------------------------------------------------------------------------------------------------
                            Total      Total      Total      Total     Imperv       Perv      Total       Total     Peak  Runoff
                           Precip      Runon       Evap      Infil     Runoff     Runoff     Runoff      Runoff   Runoff   Coeff
  Subcatchment                 mm         mm         mm         mm         mm         mm         mm    10^6 ltr      LPS
  ------------------------------------------------------------------------------------------------------------------------------
  sub0                      13.45       0.00       0.00       0.63      12.47       0.31      12.77        0.01     3.75   0.950
  sub1                      13.45       0.00       0.00       1.12      11.88       0.36      12.24        0.08    25.66   0.910
  sub2                      13.45       0.00       0.00       4.44       8.39       0.53       8.92        0.08    25.29   0.663
  sub3                      13.45       0.00       0.00       4.56       8.35       0.42       8.77        0.20    55.75   0.652
  sub4                      13.45       0.00       0.00       1.22      11.71       0.26      11.97        0.25    65.52   0.890
  sub5                      13.45       0.00       0.00       0.68      12.41       0.26      12.67        0.14    44.76   0.942
  sub7                      13.45       0.00       0.00       0.86      12.18       0.35      12.53        0.04    14.26   0.931
  sub8                      13.45       0.00       0.00       0.87      12.17       0.34      12.50        0.08    26.26   0.930
  sub9                      13.45       0.00       0.00       0.88      12.17       0.33      12.50        0.06    19.64   0.929
  sub10                     13.45       0.00       0.00       0.78      12.29       0.29      12.58        0.14    44.00   0.935
  sub11                     13.45       0.00       0.00       0.77      12.30       0.31      12.61        0.15    48.45   0.938
  sub12                     13.45       0.00       0.00       1.25      11.66       0.50      12.16        0.11    38.10   0.904
  sub14                     13.45       0.00       0.00       0.88      12.16       0.33      12.49        0.12    38.67   0.929
  sub15                     13.45       0.00       0.00       3.37       9.35       0.66      10.01        0.17    57.01   0.744
  sub16                     13.45       0.00       0.00       3.56       8.97       0.88       9.85        0.10    37.63   0.732
  sub17                     13.45       0.00       0.00       3.47       9.10       0.84       9.94        0.09    30.67   0.739
  sub22                     13.45       0.00       0.00       4.98       7.63       0.81       8.43        0.53   184.54   0.627
  sub23                     13.45       0.00       0.00       4.17       8.43       0.81       9.24        0.44   154.22   0.687
  sub60                     13.45       0.00       0.00       1.53       9.85       0.09       9.93        3.01   438.14   0.738
  sub61                     13.45       0.00       0.00       2.16       9.95       0.12      10.07        3.11   536.45   0.749
  sub62                     13.45       0.00       0.00       0.98      10.84       0.10      10.94        3.36   552.35   0.813
  sub63                     13.45       0.00       0.00       3.77       8.69       0.14       8.83        2.67   492.63   0.656
  sub64                     13.45       0.00       0.00       1.93       9.45       0.09       9.54        2.90   416.72   0.709
  sub65                     13.45       0.00       0.00       1.67       9.61       0.08       9.70        2.98   423.09   0.721
  sub66                     13.45       0.00       0.00       3.81       8.10       0.09       8.18        2.51   380.66   0.608
  sub67                     13.45       0.00       0.00       0.95      11.38       0.13      11.51        3.55   679.52   0.856
  sub68                     13.45       0.00       0.00       1.75      10.45       0.13      10.59        3.26   586.26   0.787
  sub69                     13.45       0.00       0.00       1.83      10.79       0.19      10.98        2.57   544.72   0.816
  sub70                     13.45      11.20       0.00       7.51      14.65       0.88      15.52        3.55   494.81   0.630
  sub71                     13.45       0.00       0.00       0.99      10.58       0.09      10.67        2.52   389.24   0.793
  sub72                     13.45       0.00       0.00       0.89       8.56       0.05       8.61        1.75   189.18   0.640
  1                         13.45      15.11       0.00       1.37      16.56       4.63      21.19        4.98   484.42   0.742
  2                         13.45       0.00       0.00       3.02       3.21       1.96       5.17        2.07   340.45   0.384
  
  
  ****************************
  Subcatchment Washoff Summary
  ****************************
  
  ------------------------------------------------------------------------------------------
                                 COD            SS            TN            TP         NH4-N
  Subcatchment                    kg            kg            kg            kg            kg
  ------------------------------------------------------------------------------------------
  sub0                         2.670         5.197         0.046         0.004         0.022
  sub1                        11.241        22.423         0.210         0.015         0.101
  sub2                         6.894        13.384         0.145         0.010         0.067
  sub3                        16.924        32.573         0.350         0.024         0.161
  sub4                        25.772        51.904         0.510         0.031         0.245
  sub5                        25.778        50.682         0.460         0.035         0.223
  sub7                         5.751        11.638         0.108         0.007         0.052
  sub8                         8.581        17.755         0.171         0.010         0.082
  sub9                         7.353        15.005         0.142         0.009         0.068
  sub10                       21.202        42.223         0.389         0.028         0.188
  sub11                       20.657        41.614         0.386         0.026         0.187
  sub12                       17.724        35.094         0.321         0.024         0.155
  sub14                       15.732        31.800         0.298         0.020         0.144
  sub15                       20.231        39.321         0.389         0.028         0.182
  sub16                       13.129        25.518         0.249         0.019         0.117
  sub17                       12.049        23.208         0.222         0.017         0.105
  sub22                       62.582       119.432         1.186         0.090         0.554
  sub23                       36.683        72.439         0.776         0.051         0.357
  sub60                      243.520       456.962         4.842         0.298         2.321
  sub61                      302.151       564.434         5.627         0.386         2.710
  sub62                      313.722       596.076         6.119         0.388         2.938
  sub63                      223.275       410.850         4.468         0.314         2.075
  sub64                      305.877       553.773         5.626         0.410         2.687
  sub65                      313.037       569.066         5.795         0.415         2.772
  sub66                      176.068       321.340         3.608         0.236         1.687
  sub67                      466.222       877.505         8.365         0.616         4.045
  sub68                      332.037       626.413         6.347         0.429         3.034
  sub69                      298.258       568.561         5.590         0.393         2.674
  sub70                      502.897       962.303        10.037         0.699         4.710
  sub71                      206.745       396.330         4.242         0.246         2.030
  sub72                      164.385       293.107         3.069         0.210         1.476
  1                          349.075       671.606         7.102         0.495         3.297
  2                           42.749        75.577         1.214         0.073         0.518
  ------------------------------------------------------------------------------------------
  System                    4570.974      8595.115        88.408         6.057        41.983
  
  
  ******************
  Node Depth Summary
  ******************
  
  ---------------------------------------------------------------------------------
                                 Average  Maximum  Maximum  Time of Max    Reported
                                   Depth    Depth      HGL   Occurrence   Max Depth
  Node                 Type       Meters   Meters   Meters  days hr:min      Meters
  ---------------------------------------------------------------------------------
  WS02001211           JUNCTION     0.77     0.85     5.69     0  03:07        0.85
  WS02001212           JUNCTION     0.48     0.58     5.64     0  03:06        0.58
  WS02001213           JUNCTION     0.72     0.85     5.62     0  03:06        0.85
  WS02003069           JUNCTION     0.52     0.72     5.30     0  03:05        0.72
  WS02003072           JUNCTION     0.58     0.76     5.13     0  03:06        0.76
  WS02003073           JUNCTION     0.35     0.48     4.54     0  03:06        0.48
  WS02003060           JUNCTION     0.46     0.63     5.57     0  03:05        0.63
  WS02003066           JUNCTION     0.25     0.39     5.94     0  03:04        0.39
  WS02003059           JUNCTION     0.77     0.91     5.60     0  03:05        0.91
  WS02003067           JUNCTION     0.60     0.82     6.14     0  03:04        0.82
  WS02004401           JUNCTION     0.73     1.23     7.23     0  03:01        1.23
  WS02004402           JUNCTION     0.76     1.22     7.18     0  03:01        1.22
  WS02004403           JUNCTION     0.77     1.20     7.13     0  03:01        1.19
  WS02004404           JUNCTION     0.85     1.24     7.09     0  03:01        1.24
  WS02004406           JUNCTION     0.85     1.16     6.99     0  03:02        1.16
  WS02004409           JUNCTION     0.54     0.96     6.73     0  03:03        0.96
  WS02004410           JUNCTION     0.56     0.95     6.67     0  03:03        0.95
  WS02004411           JUNCTION     0.57     0.93     6.61     0  03:03        0.93
  WS02004412           JUNCTION     0.58     0.90     6.54     0  03:04        0.90
  WS02004413           JUNCTION     0.74     1.02     6.49     0  03:04        1.02
  WS02004405           JUNCTION     0.84     1.22     7.07     0  03:00        1.21
  WS02006109           JUNCTION     0.82     1.65     8.27     0  03:02        1.64
  WS02006110           JUNCTION     0.80     1.44     8.03     0  03:02        1.44
  WS02006111           JUNCTION     0.25     0.88     7.59     0  03:02        0.88
  WS02006112           JUNCTION     0.91     1.55     7.44     0  03:01        1.55
  WS02006113           JUNCTION     0.37     0.92     7.81     0  03:02        0.92
  WS02006115           JUNCTION     0.62     1.21     7.35     0  03:02        1.21
  WS02006116           JUNCTION     0.71     1.26     7.30     0  03:02        1.26
  WS02006230           JUNCTION     0.83     1.87     8.62     0  03:02        1.87
  WS02006231           JUNCTION     0.58     1.51     8.64     0  03:02        1.51
  WS02006232           JUNCTION     0.72     1.62     8.66     0  03:02        1.61
  WS02006234           JUNCTION     0.66     1.52     8.68     0  03:02        1.52
  WS02006235           JUNCTION     0.70     1.53     8.70     0  03:01        1.53
  WS02006238           JUNCTION     0.73     1.55     8.70     0  03:01        1.54
  WS02006240           JUNCTION     0.63     1.40     8.69     0  03:02        1.39
  WS02006242           JUNCTION     0.68     1.42     8.69     0  03:01        1.42
  WS02006243           JUNCTION     0.57     1.28     8.70     0  03:01        1.27
  WS02006245           JUNCTION     0.54     1.21     8.70     0  03:00        1.20
  WS02006247           JUNCTION     0.55     1.20     8.70     0  02:59        1.19
  WS02006248           JUNCTION     0.49     1.10     8.69     0  02:57        1.10
  WS02006249           JUNCTION     0.51     1.09     8.69     0  02:55        1.09
  WS02006239           JUNCTION     0.69     1.48     8.69     0  03:01        1.48
  WS02006251           JUNCTION     0.49     1.33     9.00     0  03:52        1.15
  WS02006252           JUNCTION     0.31     0.88     9.12     0  04:21        0.69
  WS02006253           JUNCTION     0.52     1.45     9.10     0  04:21        1.19
  WS02006256           JUNCTION     1.77     2.35     9.28     0  00:12        2.35
  WS02004138           JUNCTION     0.19     0.20     7.45     0  00:00        0.19
  WS02004139           JUNCTION     0.72     0.79     5.70     0  03:07        0.79
  WS02004407           JUNCTION     0.24     0.40     6.71     0  03:03        0.40
  WS02006228           JUNCTION     0.84     1.82     8.47     0  03:02        1.82
  WS02006229           JUNCTION     0.82     1.90     8.59     0  03:02        1.89
  WS02006280           JUNCTION     0.07     0.30     8.57     0  03:05        0.30
  WS02006284           JUNCTION     0.37     0.65     9.04     0  03:02        0.64
  WS02006287           JUNCTION     0.10     0.39     9.34     0  03:02        0.39
  WSF200               JUNCTION     0.24     0.44     5.67     0  03:04        0.44
  HS02004901           JUNCTION     0.13     0.38    10.20     0  03:01        0.37
  HS02004881           JUNCTION     0.01     0.05     9.08     0  03:01        0.05
  HS02004876           JUNCTION     0.04     0.16     9.19     0  03:01        0.16
  HS02004870           JUNCTION     0.02     0.09     9.38     0  03:01        0.09
  HS02004862           JUNCTION     0.02     0.11     9.49     0  03:01        0.11
  HS02004856           JUNCTION     0.08     0.15     9.58     0  03:01        0.15
  HS02004852           JUNCTION     0.01     0.07     9.59     0  03:02        0.07
  HS02004848           JUNCTION     0.01     0.07     9.67     0  03:01        0.07
  HS02004842           JUNCTION     0.34     0.40     9.67     0  03:01        0.40
  HS02004837           JUNCTION     0.03     0.09     9.67     0  03:01        0.09
  HS02004830           JUNCTION     0.04     0.10     9.57     0  03:02        0.10
  HS02004824           JUNCTION     0.02     0.13     9.53     0  03:02        0.13
  HS02004817           JUNCTION     0.44     0.69     9.54     0  03:02        0.69
  HS02004807           JUNCTION     0.13     0.36     9.53     0  03:02        0.36
  HS02004802           JUNCTION     0.17     0.39     9.52     0  03:02        0.39
  HS02004799           JUNCTION     0.12     0.46     9.68     0  03:01        0.46
  HS02004792           JUNCTION     0.04     0.22     9.74     0  03:01        0.21
  HS02004788           JUNCTION     0.03     0.16    10.05     0  03:02        0.16
  HS02004785           JUNCTION     0.05     0.25    10.15     0  03:02        0.25
  HS02004777           JUNCTION     0.15     0.39    10.19     0  03:01        0.39
  HS02004770           JUNCTION     0.12     0.37    10.20     0  03:01        0.36
  HS02004480           JUNCTION     0.08     0.38     9.62     0  03:01        0.38
  HS02004479           JUNCTION     0.12     0.42     9.62     0  03:01        0.42
  HS02004478           JUNCTION     0.06     0.28     9.50     0  03:01        0.28
  YS02001745           JUNCTION     0.74     0.95     8.47     0  03:01        0.95
  YS02001748           JUNCTION     1.14     1.71     8.79     0  02:36        1.39
  YS02001751           JUNCTION     1.32     1.69     8.57     0  02:36        1.57
  YS02001754           JUNCTION     1.57     1.84     8.45     0  03:00        1.84
  YS02001762           JUNCTION     1.77     2.05     8.45     0  03:00        2.04
  YS02001765           JUNCTION     1.72     2.00     8.45     0  03:00        1.99
  YS02001767           JUNCTION     1.69     1.96     8.45     0  03:00        1.94
  YS02001770           JUNCTION     1.68     1.95     8.44     0  02:30        1.93
  YS02001774           JUNCTION     1.75     2.03     8.45     0  02:30        1.98
  YS02001779           JUNCTION     1.49     1.68     8.37     0  02:30        1.68
  YS02001882           JUNCTION     0.56     1.64     8.35     0  03:00        1.63
  YS02001884           JUNCTION     0.65     1.73     8.35     0  03:00        1.73
  YS02001759           JUNCTION     1.81     2.08     8.45     0  03:00        2.08
  YS02001887           JUNCTION     0.73     1.82     8.35     0  03:00        1.80
  YS02001890           JUNCTION     0.76     1.81     8.32     0  02:50        1.81
  YS02001898           JUNCTION     0.53     1.56     8.30     0  02:53        1.56
  YS02001901           JUNCTION     0.65     1.68     8.29     0  02:57        1.67
  YS02001904           JUNCTION     0.62     1.64     8.27     0  02:57        1.63
  YS02001907           JUNCTION     0.95     1.96     8.25     0  02:50        1.96
  YS02001910           JUNCTION     0.74     1.79     8.29     0  02:51        1.77
  YS02001915           JUNCTION     0.54     1.60     8.32     0  02:52        1.59
  YS02001918           JUNCTION     0.29     1.28     8.35     0  02:51        1.27
  YS02001619           JUNCTION     1.28     1.61     8.54     0  02:30        1.48
  YS02001629           JUNCTION     1.63     1.85     8.40     0  02:32        1.84
  YS02001641           JUNCTION     1.73     1.94     8.37     0  02:59        1.93
  YS02001644           JUNCTION     1.73     1.92     8.35     0  02:39        1.92
  YS02001652           JUNCTION     1.58     2.12     8.71     0  02:26        1.98
  YS02001655           JUNCTION     1.35     2.06     8.91     0  02:25        1.85
  YS02001920           JUNCTION     0.39     1.36     8.37     0  02:51        1.34
  YS02001923           JUNCTION     0.23     1.12     8.38     0  02:51        1.10
  YS02001926           JUNCTION     0.29     0.94     8.39     0  02:51        0.94
  YS02001929           JUNCTION     0.16     0.71     8.41     0  02:51        0.71
  YS02001658           JUNCTION     1.08     1.90     9.04     0  02:29        1.62
  YS02001661           JUNCTION     0.85     2.39     9.79     0  02:46        1.41
  YS02001664           JUNCTION     0.38     0.57     8.49     0  02:46        0.56
  YS02001622           JUNCTION     1.30     1.59     8.49     0  02:30        1.50
  YS02001633           JUNCTION     1.72     1.95     8.40     0  03:00        1.94
  YS02001649           JUNCTION     1.78     2.05     8.44     0  02:42        2.04
  YS02001757           JUNCTION     1.90     2.17     8.43     0  02:56        2.17
  YS02001895           JUNCTION     0.52     1.57     8.31     0  02:54        1.56
  YS02001625           JUNCTION     1.59     1.78     8.38     0  02:32        1.78
  YS02163301           JUNCTION     1.66     1.88     8.40     0  02:56        1.88
  YS02163601           JUNCTION     1.77     1.99     8.39     0  02:56        1.98
  YS02164001           JUNCTION     1.71     1.92     8.38     0  02:40        1.91
  YS02001647           JUNCTION     1.57     1.80     8.41     0  02:46        1.79
  YSB1154              JUNCTION     0.26     0.57     9.62     0  03:01        0.57
  YSB6556              JUNCTION     0.15     0.45     9.62     0  03:02        0.45
  YSB1174              JUNCTION     0.21     0.52     9.62     0  03:01        0.51
  YSB1171              JUNCTION     0.41     0.72     9.62     0  03:01        0.72
  YS02006553           JUNCTION     0.96     2.16     8.45     0  02:56        1.96
  YS02006561           JUNCTION     0.31     1.75     8.41     0  02:56        1.09
  YS02006556           JUNCTION     0.92     2.38     8.69     0  02:56        1.93
  YS02006558           JUNCTION     0.96     2.50     8.77     0  02:56        1.97
  YS02001783           JUNCTION     0.53     2.30     8.44     0  02:56        1.47
  YS02001784           JUNCTION     0.55     2.29     8.36     0  02:56        1.42
  YS02001786           JUNCTION     0.49     2.23     8.26     0  02:56        1.26
  YS02001788           JUNCTION     0.41     2.28     8.26     0  02:56        1.13
  YS02001790           JUNCTION     0.53     1.96     7.60     0  02:56        1.29
  YS02001791           JUNCTION     0.49     2.72     8.19     0  04:51        1.27
  YS02001793           JUNCTION     0.67     2.70     7.53     0  04:49        1.80
  WSC                  OUTFALL      0.35     0.48     1.15     0  03:07        0.48
  JK-storage           STORAGE      2.94     5.80     6.60     0  02:20        5.80
  CC-storage           STORAGE      1.16     1.42     8.42     0  03:13        1.42
  XR-storage           STORAGE      6.69     7.72     5.72     0  02:57        7.72
  
  
  *******************
  Node Inflow Summary
  *******************
  
  -------------------------------------------------------------------------------------------------
                                  Maximum  Maximum                  Lateral       Total        Flow
                                  Lateral    Total  Time of Max      Inflow      Inflow     Balance
                                   Inflow   Inflow   Occurrence      Volume      Volume       Error
  Node                 Type           LPS      LPS  days hr:min    10^6 ltr    10^6 ltr     Percent
  -------------------------------------------------------------------------------------------------
  WS02001211           JUNCTION      7.35   390.30     0  03:16       0.207          10       0.413
  WS02001212           JUNCTION      0.00   393.24     0  03:16           0        9.98       0.253
  WS02001213           JUNCTION      0.00   395.77     0  03:16           0        9.96       0.303
  WS02003069           JUNCTION      0.32  1333.41     0  03:05     0.00902        19.6       0.206
  WS02003072           JUNCTION      0.00  1333.07     0  03:06           0        19.6       0.241
  WS02003073           JUNCTION      1.82  1334.93     0  03:06      0.0514        19.6       0.284
  WS02003060           JUNCTION     16.53  1333.40     0  03:05       0.466        19.7       0.195
  WS02003066           JUNCTION      0.00   938.68     0  03:04           0        9.32       0.061
  WS02003059           JUNCTION      0.00   398.69     0  03:15           0        9.93       0.431
  WS02003067           JUNCTION      0.00   938.28     0  03:04           0        9.33       0.119
  WS02004401           JUNCTION      0.00   938.80     0  03:02           0        9.61       0.263
  WS02004402           JUNCTION      0.00   938.87     0  03:03           0        9.58       0.243
  WS02004403           JUNCTION      0.00   938.97     0  03:03           0        9.56       0.218
  WS02004404           JUNCTION      0.16   939.26     0  03:03     0.00457        9.54       0.158
  WS02004406           JUNCTION      0.00   939.57     0  03:03           0        9.51       0.388
  WS02004409           JUNCTION      0.00   939.46     0  03:03           0        9.46       0.232
  WS02004410           JUNCTION      0.00   938.61     0  03:03           0        9.44       0.255
  WS02004411           JUNCTION      0.00   938.19     0  03:03           0        9.41       0.256
  WS02004412           JUNCTION      0.00   937.98     0  03:03           0        9.39       0.268
  WS02004413           JUNCTION      0.00   938.09     0  03:04           0        9.36       0.381
  WS02004405           JUNCTION      0.04   939.44     0  03:03     0.00107        9.53       0.239
  WS02006109           JUNCTION      1.23   914.61     0  03:02      0.0347        9.66       0.174
  WS02006110           JUNCTION      0.00   914.69     0  03:02           0        9.64       0.239
  WS02006111           JUNCTION      0.00   915.02     0  03:03           0        9.61       0.056
  WS02006112           JUNCTION     30.67   938.58     0  03:02      0.0853        9.69       0.338
  WS02006113           JUNCTION      0.00   914.75     0  03:02           0        9.62       0.132
  WS02006115           JUNCTION      0.00   938.60     0  03:02           0        9.65       0.263
  WS02006116           JUNCTION      0.00   938.71     0  03:02           0        9.63       0.236
  WS02006230           JUNCTION     10.28   532.23     0  07:33        0.29        7.24       0.233
  WS02006231           JUNCTION      0.00   521.85     0  07:33           0        6.96       0.191
  WS02006232           JUNCTION      0.00   521.76     0  07:33           0        6.98       0.260
  WS02006234           JUNCTION      0.00   522.42     0  05:12           0        6.99       0.149
  WS02006235           JUNCTION      0.00   522.32     0  05:12           0        7.07       0.168
  WS02006238           JUNCTION      0.00   392.86     0  05:10           0        3.68       0.123
  WS02006240           JUNCTION      0.00   393.33     0  05:10           0        3.63       0.432
  WS02006242           JUNCTION      0.00   393.51     0  05:10           0        3.62       0.513
  WS02006243           JUNCTION      0.00   393.44     0  05:10           0        3.61       0.285
  WS02006245           JUNCTION      0.00   393.80     0  05:10           0        3.62       0.439
  WS02006247           JUNCTION      0.00   394.04     0  05:10           0        3.63       0.310
  WS02006248           JUNCTION      0.00   394.09     0  05:10           0        3.64       0.164
  WS02006249           JUNCTION      0.00   429.86     0  04:22           0        3.88       0.373
  WS02006239           JUNCTION      0.00   393.08     0  05:10           0        3.65       0.232
  WS02006251           JUNCTION      0.08   428.52     0  04:21     0.00217        3.96       0.274
  WS02006252           JUNCTION      0.00   400.00     0  04:20           0        3.42       0.011
  WS02006253           JUNCTION      3.75   149.75     0  04:20      0.0103       0.543       1.020
  WS02006256           JUNCTION      0.00   983.00     0  02:30           0        9.87       0.009
  WS02004138           JUNCTION      0.00   380.00     0  00:00           0        9.86       0.066
  WS02004139           JUNCTION      0.32   394.45     0  00:00     0.00905        9.86       0.471
  WS02004407           JUNCTION      0.00   939.65     0  03:03           0        9.47       0.102
  WS02006228           JUNCTION      0.00   913.22     0  03:02           0        9.64       0.137
  WS02006229           JUNCTION      0.00   918.42     0  03:01           0        9.65       0.146
  WS02006280           JUNCTION      0.00   680.04     0  03:02           0        2.43       0.012
  WS02006284           JUNCTION      0.10   678.90     0  03:02      0.0027        2.43       0.045
  WS02006287           JUNCTION      0.00   677.56     0  03:02           0        2.43       0.032
  WSF200               JUNCTION      0.00   938.81     0  03:04           0        9.31       0.063
  HS02004901           JUNCTION     37.63    37.63     0  03:01       0.103       0.103       1.743
  HS02004881           JUNCTION     14.26   140.51     0  03:01      0.0422       0.463       0.091
  HS02004876           JUNCTION     25.66   127.61     0  03:01      0.0814       0.422       0.129
  HS02004870           JUNCTION     26.26   103.57     0  03:01      0.0799        0.34       0.036
  HS02004862           JUNCTION     25.49    79.35     0  03:01      0.0888       0.261       0.068
  HS02004856           JUNCTION     19.64    55.41     0  03:01      0.0601       0.173       0.845
  HS02004852           JUNCTION      0.00    37.83     0  03:01           0       0.113       0.053
  HS02004848           JUNCTION     55.75    55.75     0  03:01       0.197       0.197       0.030
  HS02004842           JUNCTION      0.00    16.84     0  03:01           0       0.097      15.492
  HS02004837           JUNCTION     50.35    65.70     0  03:01       0.318       0.402       0.205
  HS02004830           JUNCTION      0.15    64.78     0  03:01     0.00423       0.392       0.316
  HS02004824           JUNCTION     65.57   128.43     0  03:01       0.251       0.642       0.086
  HS02004817           JUNCTION      0.60   124.45     0  03:01      0.0169       0.658       2.599
  HS02004807           JUNCTION     48.45   165.80     0  03:01       0.147       0.788       0.555
  HS02004802           JUNCTION      0.00   165.30     0  03:04           0       0.785       0.506
  HS02004799           JUNCTION     38.67   445.91     0  03:01       0.119        1.42       0.191
  HS02004792           JUNCTION    184.82   411.72     0  03:01        0.54         1.3       0.034
  HS02004788           JUNCTION     58.68   233.41     0  03:01       0.219       0.758       0.053
  HS02004785           JUNCTION      0.15   182.16     0  03:01     0.00423        0.54       0.093
  HS02004777           JUNCTION      0.03   184.95     0  03:01    0.000846       0.541       0.972
  HS02004770           JUNCTION    154.22   188.94     0  03:01       0.441       0.542       0.579
  HS02004480           JUNCTION      0.00   517.08     0  03:01           0        1.66       0.067
  HS02004479           JUNCTION      0.00    75.38     0  03:02           0       0.258       0.287
  HS02004478           JUNCTION      0.00   677.01     0  03:02           0        2.43       0.010
  YS02001745           JUNCTION    438.14   438.14     0  03:01        3.01        3.02       0.364
  YS02001748           JUNCTION      0.04   550.12     0  02:33     0.00127        3.01       0.733
  YS02001751           JUNCTION      0.01   443.34     0  03:01     0.00031        2.98       0.802
  YS02001754           JUNCTION      0.26   443.73     0  03:01     0.00733        2.96       0.841
  YS02001762           JUNCTION      0.00   315.02     0  02:42           0        2.15       1.011
  YS02001765           JUNCTION      0.00   315.45     0  02:42           0        2.15       1.144
  YS02001767           JUNCTION      0.54   316.11     0  02:42      0.0151        2.17       1.683
  YS02001770           JUNCTION    552.50   673.77     0  03:01        3.37        3.98       0.798
  YS02001774           JUNCTION      0.00   674.90     0  03:01           0        2.41       1.056
  YS02001779           JUNCTION      0.01   675.61     0  03:01    0.000141        2.38       0.650
  YS02001882           JUNCTION      0.00    13.34     0  02:43           0      0.0211      11.085
  YS02001884           JUNCTION      0.00    20.77     0  02:40           0      0.0582      11.353
  YS02001759           JUNCTION    536.49   620.37     0  02:42        3.11        4.61       0.498
  YS02001887           JUNCTION    679.97   679.97     0  03:01        3.56         3.6       0.238
  YS02001890           JUNCTION      0.00   679.59     0  03:01           0        3.55       0.263
  YS02001898           JUNCTION      0.00   518.14     0  03:00           0        3.45       0.075
  YS02001901           JUNCTION      0.00   517.82     0  02:58           0        3.45       0.205
  YS02001904           JUNCTION      0.00   517.84     0  02:57           0        3.44       0.178
  YS02001907           JUNCTION      0.00  1111.59     0  03:01           0        7.77       0.302
  YS02001910           JUNCTION      0.00   595.19     0  03:01           0        4.34       0.273
  YS02001915           JUNCTION    389.26   594.40     0  03:01        2.52        4.35       0.138
  YS02001918           JUNCTION      0.00   259.01     0  02:52           0        1.84       0.081
  YS02001619           JUNCTION    380.66   380.66     0  03:01        2.51        2.51       0.490
  YS02001629           JUNCTION      0.00   195.84     0  02:25           0        1.59       1.845
  YS02001641           JUNCTION      0.00   412.31     0  02:40           0        4.46       0.476
  YS02001644           JUNCTION    416.76  1527.66     0  03:01         2.9        11.1       0.239
  YS02001652           JUNCTION      0.00   501.27     0  03:01           0        2.62       0.912
  YS02001655           JUNCTION      0.15   501.22     0  03:01     0.00434        2.65       0.920
  YS02001920           JUNCTION      2.87   259.08     0  02:52      0.0809        1.84       0.157
  YS02001923           JUNCTION      0.04   234.23     0  02:52     0.00106        1.75       0.052
  YS02001926           JUNCTION      0.05   201.14     0  03:02     0.00147        1.75       0.198
  YS02001929           JUNCTION    189.18   189.18     0  03:01        1.75        1.75       0.037
  YS02001658           JUNCTION      0.00   603.16     0  02:29           0        2.68       0.785
  YS02001661           JUNCTION      0.00   673.30     0  02:41           0        3.01       0.014
  YS02001664           JUNCTION    492.63   492.63     0  03:01        2.67           3       0.205
  YS02001622           JUNCTION      0.00   381.07     0  03:01           0         2.5       1.283
  YS02001633           JUNCTION    423.29   423.29     0  03:01        2.99        4.52       0.720
  YS02001649           JUNCTION      0.00   876.82     0  02:39           0        6.09       0.621
  YS02001757           JUNCTION      0.00  1681.45     0  02:40           0        9.28       1.000
  YS02001895           JUNCTION      0.00   517.65     0  02:57           0        3.45       0.146
  YS02001625           JUNCTION      0.00   407.77     0  03:01           0        2.47       1.589
  YS02163301           JUNCTION      0.00   203.88     0  02:33           0        1.57       1.575
  YS02163601           JUNCTION      0.11   413.20     0  02:40      0.0031        4.48       0.678
  YS02164001           JUNCTION      0.00   412.23     0  02:40           0        4.46       0.465
  YS02001647           JUNCTION      0.00   729.20     0  03:10           0        5.27       0.538
  YSB1154              JUNCTION     44.76    44.76     0  03:01       0.144       0.144       1.019
  YSB6556              JUNCTION      0.00    43.26     0  03:01           0       0.145       0.869
  YSB1174              JUNCTION     38.10    38.10     0  03:01       0.106       0.107       1.223
  YSB1171              JUNCTION      0.00    76.90     0  03:01           0       0.257       2.526
  YS02006553           JUNCTION      0.00   718.71     0  02:51           0         6.8       0.225
  YS02006561           JUNCTION      0.00  1143.48     0  02:55           0          10       0.008
  YS02006556           JUNCTION      0.00   719.18     0  02:51           0         6.8       0.161
  YS02006558           JUNCTION    587.14  1144.60     0  02:55        3.28        10.1       0.048
  YS02001783           JUNCTION      0.00  1143.48     0  02:55           0          10       0.025
  YS02001784           JUNCTION      1.06  1144.81     0  02:55      0.0299        10.1       0.036
  YS02001786           JUNCTION      0.06  1144.62     0  02:55     0.00159        10.1       0.035
  YS02001788           JUNCTION      0.07  1145.51     0  02:55       0.002        10.1       0.021
  YS02001790           JUNCTION      0.15  1156.51     0  02:54     0.00437        10.1       0.018
  YS02001791           JUNCTION      0.00  1268.57     0  02:54           0        10.1       0.002
  YS02001793           JUNCTION      0.00  1214.27     0  02:52           0        10.1      -0.016
  WSC                  OUTFALL       0.00  1335.07     0  03:07           0        19.5       0.000
  JK-storage           STORAGE       0.00  1176.02     0  02:51           0        10.2      -9.746
  CC-storage           STORAGE       0.00  1682.74     0  02:40           0        7.21       0.894
  XR-storage           STORAGE    1024.87  1024.87     0  03:01        12.7        13.3      -0.004
  
  
  **********************
  Node Surcharge Summary
  **********************
  
  Surcharging occurs when water rises above the top of the highest conduit.
  ---------------------------------------------------------------------
                                               Max. Height   Min. Depth
                                   Hours       Above Crown    Below Rim
  Node                 Type      Surcharged         Meters       Meters
  ---------------------------------------------------------------------
  WS02004401           JUNCTION        0.53          0.232        1.428
  WS02004402           JUNCTION        0.58          0.221        1.519
  WS02004403           JUNCTION        0.59          0.200        1.830
  WS02004404           JUNCTION        0.82          0.244        2.536
  WS02004406           JUNCTION        0.74          0.162        2.288
  WS02004413           JUNCTION        0.19          0.023        2.177
  WS02004405           JUNCTION        0.77          0.215        2.585
  WS02006109           JUNCTION        3.75          0.828        0.992
  WS02006110           JUNCTION        1.74          0.532        1.318
  WS02006111           JUNCTION        0.13          0.072        1.798
  WS02006112           JUNCTION        2.26          0.553        1.127
  WS02006113           JUNCTION        0.16          0.121        1.809
  WS02006115           JUNCTION        0.37          0.204        2.046
  WS02006116           JUNCTION        0.39          0.197        2.093
  WS02006230           JUNCTION        1.38          0.792        0.778
  WS02006231           JUNCTION        1.88          0.804        0.726
  WS02006232           JUNCTION        3.44          0.917        0.563
  WS02006234           JUNCTION        2.63          0.800        0.440
  WS02006235           JUNCTION        2.92          0.822        0.468
  WS02006238           JUNCTION        3.05          0.832        0.598
  WS02006240           JUNCTION        2.43          0.687        0.703
  WS02006242           JUNCTION        2.56          0.693        0.127
  WS02006243           JUNCTION        2.03          0.570        0.200
  WS02006245           JUNCTION        1.85          0.502        0.348
  WS02006247           JUNCTION        1.87          0.485        0.275
  WS02006248           JUNCTION        1.56          0.380        0.000
  WS02006249           JUNCTION        1.64          0.390        0.000
  WS02006239           JUNCTION        2.60          0.744        0.546
  WS02006251           JUNCTION        0.74          0.296        0.884
  WS02006252           JUNCTION        2.01          0.480        0.620
  WS02006253           JUNCTION        0.79          0.415        2.065
  WS02006256           JUNCTION        6.78          2.050        0.000
  WS02006228           JUNCTION        3.68          0.992        1.208
  YS02001748           JUNCTION        5.22          0.634        0.556
  YS02001751           JUNCTION        5.38          0.690        0.510
  YS02001754           JUNCTION        5.58          0.793        0.357
  YS02001762           JUNCTION        5.75          1.048        0.102
  YS02001765           JUNCTION        5.72          0.997        0.103
  YS02001767           JUNCTION        5.69          0.956        0.074
  YS02001770           JUNCTION        5.68          0.920        0.000
  YS02001774           JUNCTION        5.74          1.028        0.022
  YS02001779           JUNCTION        5.56          0.680        0.000
  YS02001882           JUNCTION        1.07          0.637        0.193
  YS02001884           JUNCTION        1.09          0.675        0.195
  YS02001759           JUNCTION        5.78          1.082        0.128
  YS02001887           JUNCTION        1.17          0.765        0.185
  YS02001890           JUNCTION        1.20          0.760        0.000
  YS02001898           JUNCTION        1.02          0.533        0.207
  YS02001901           JUNCTION        1.13          0.679        0.191
  YS02001904           JUNCTION        1.11          0.637        0.213
  YS02001907           JUNCTION        1.91          0.950        0.000
  YS02001910           JUNCTION        1.24          0.786        0.314
  YS02001915           JUNCTION        1.05          0.599        0.401
  YS02001918           JUNCTION        0.86          0.280        0.530
  YS02001619           JUNCTION        5.37          0.610        0.000
  YS02001629           JUNCTION        5.38          0.470        0.000
  YS02001641           JUNCTION        5.73          0.936        0.164
  YS02001644           JUNCTION        5.73          0.920        0.000
  YS02001652           JUNCTION        5.61          1.088        0.042
  YS02001655           JUNCTION        5.40          1.059        0.141
  YS02001920           JUNCTION        0.89          0.361        0.779
  YS02001658           JUNCTION        5.25          0.899        0.401
  YS02001661           JUNCTION        0.12          1.320        0.070
  YS02001622           JUNCTION        5.40          0.590        0.030
  YS02001633           JUNCTION        5.71          0.928        0.132
  YS02001649           JUNCTION        5.75          1.050        0.000
  YS02001757           JUNCTION        5.86          1.173        0.037
  YS02001895           JUNCTION        1.04          0.566        0.184
  YS02001625           JUNCTION        5.64          0.780        0.000
  YS02163301           JUNCTION        5.68          0.884        0.146
  YS02163601           JUNCTION        5.75          0.991        0.089
  YS02164001           JUNCTION        5.72          0.922        0.178
  YS02001647           JUNCTION        5.62          0.804        0.096
  YS02006553           JUNCTION        1.97          1.164        0.026
  YS02006561           JUNCTION        0.86          0.950        0.200
  YS02006556           JUNCTION        1.47          1.336        0.014
  YS02006558           JUNCTION        1.43          1.400        0.000
  YS02001783           JUNCTION        1.34          1.496        0.104
  YS02001784           JUNCTION        1.29          1.490        0.000
  YS02001786           JUNCTION        1.11          1.430        0.000
  YS02001788           JUNCTION        0.92          1.480        0.000
  YS02001790           JUNCTION        2.02          1.157        0.000
  YS02001791           JUNCTION        2.11          1.920        0.000
  YS02001793           JUNCTION        2.43          1.695        0.905
  
  
  *********************
  Node Flooding Summary
  *********************
  
  Flooding refers to all water that overflows a node, whether it ponds or not.
  --------------------------------------------------------------------------
                                                             Total   Maximum
                                 Maximum   Time of Max       Flood    Ponded
                        Hours       Rate    Occurrence      Volume     Depth
  Node                 Flooded       LPS   days hr:min    10^6 ltr    Meters
  --------------------------------------------------------------------------
  WS02006248              0.08     14.87      0  03:03       0.002     0.000
  WS02006249              0.67    258.94      0  03:02       0.229     0.000
  WS02006256              4.06    790.48      0  03:52       6.414     0.000
  YS02001770              0.01      9.75      0  02:30       0.000     0.000
  YS02001779              2.77    675.60      0  03:01       2.357     0.000
  YS02001890              0.33    162.54      0  03:01       0.085     0.000
  YS02001907              0.72    727.17      0  03:01       0.958     0.000
  YS02001619              0.01      8.68      0  02:30       0.000     0.000
  YS02001629              0.01      7.49      0  02:32       0.000     0.000
  YS02001644              4.54   1527.23      0  03:01       9.467     0.000
  YS02001649              0.01     27.61      0  02:47       0.000     0.000
  YS02001625              1.38    407.67      0  03:01       0.853     0.000
  YS02006558              0.01      4.61      0  02:56       0.000     0.000
  YS02001784              0.01     15.20      0  02:56       0.000     0.000
  YS02001786              0.01      2.62      0  02:56       0.000     0.000
  YS02001788              0.01    104.72      0  02:56       0.000     0.000
  YS02001790              0.01    140.16      0  04:52       0.000     0.000
  YS02001791              0.01    213.02      0  04:51       0.000     0.000
  JK-storage              1.29    672.29      0  03:00       1.432     0.000
  XR-storage              3.49    644.75      0  03:01       2.672     0.000
  
  
  **********************
  Storage Volume Summary
  **********************
  
  --------------------------------------------------------------------------------------------------
                         Average     Avg  Evap Exfil       Maximum     Max    Time of Max    Maximum
                          Volume    Pcnt  Pcnt  Pcnt        Volume    Pcnt     Occurrence    Outflow
  Storage Unit           1000 m3    Full  Loss  Loss       1000 m3    Full    days hr:min        LPS
  --------------------------------------------------------------------------------------------------
  JK-storage               0.148      51     0     0         0.291     100       0  02:20     983.00
  CC-storage               3.237      21     0     0         3.966      25       0  03:13     400.00
  XR-storage               0.803      87     0     0         0.926     100       0  02:57     380.00
  
  
  ***********************
  Outfall Loading Summary
  ***********************
  
  ---------------------------------------------------------------------------------------------------------------------------------
                         Flow       Avg       Max       Total         Total         Total         Total         Total         Total
                         Freq      Flow      Flow      Volume           COD            SS            TN            TP         NH4-N
  Outfall Node           Pcnt       LPS       LPS    10^6 ltr            kg            kg            kg            kg            kg
  ---------------------------------------------------------------------------------------------------------------------------------
  WSC                  100.00    783.79   1335.07      19.537      2373.424      4107.369       148.425        17.398        89.633
  ---------------------------------------------------------------------------------------------------------------------------------
  System               100.00    783.79   1335.07      19.537      2373.424      4107.369       148.425        17.398        89.633
  
  
  ********************
  Link Flow Summary
  ********************
  
  -----------------------------------------------------------------------------
                                 Maximum  Time of Max   Maximum    Max/    Max/
                                  |Flow|   Occurrence   |Veloc|    Full    Full
  Link                 Type          LPS  days hr:min     m/sec    Flow   Depth
  -----------------------------------------------------------------------------
  WS02003066WSF200     CONDUIT    938.81     0  03:04      3.00    0.16    0.32
  WS02006287WS02006284 CONDUIT    678.80     0  03:02      2.38    0.31    0.39
  WS02006284WS02006280 CONDUIT    680.04     0  03:02      2.62    0.28    0.37
  WS02006280WS02006229 CONDUIT    680.12     0  03:02      3.86    0.15    0.50
  WS02006229WS02006228 CONDUIT    913.22     0  03:02      1.82    3.02    1.00
  WS02006256WS02006235 CONDUIT    264.10     0  00:12      3.74    2.80    1.00
  WS02006253WS02006251 CONDUIT    145.96     0  04:20      0.56    0.44    1.00
  WS02006252WS02006251 CONDUIT    403.09     0  04:21      3.21    1.48    1.00
  WS02006251WS02006249 CONDUIT    429.86     0  04:22      1.13    1.24    1.00
  WS02006249WS02006248 CONDUIT    394.09     0  05:10      1.19    2.16    1.00
  WS02006248WS02006247 CONDUIT    394.04     0  05:10      1.16    0.86    1.00
  WS02006247WS02006245 CONDUIT    393.80     0  05:10      1.14    3.12    1.00
  WS02006245WS02006243 CONDUIT    393.44     0  05:10      1.19    1.16    1.00
  WS02006243WS02006242 CONDUIT    393.51     0  05:10      1.07    0.84    1.00
  WS02006242WS02006240 CONDUIT    393.33     0  05:10      1.02    1.56    1.00
  WS02006240WS02006239 CONDUIT    393.08     0  05:10      1.07    1.24    1.00
  WS02006239WS02006238 CONDUIT    392.86     0  05:10      1.02    1.26    1.00
  WS02006238WS02006235 CONDUIT    392.78     0  05:10      1.05    0.88    1.00
  WS02006235WS02006234 CONDUIT    522.42     0  05:12      1.36    5.51    1.00
  WS02006234WS02006232 CONDUIT    521.76     0  07:33      1.36    1.06    1.00
  WS02006232WS02006231 CONDUIT    521.85     0  07:33      1.36    1.09    1.00
  WS02006231WS02006230 CONDUIT    521.95     0  07:33      1.39    7.92    1.00
  WS02006230WS02006229 CONDUIT    532.78     0  07:33      1.38   11.86    1.00
  WS02006228WS02006109 CONDUIT    913.38     0  03:02      1.82    3.99    1.00
  WS02006116WS02004401 CONDUIT    938.80     0  03:02      1.20    1.29    1.00
  WS02006115WS02006116 CONDUIT    938.71     0  03:02      1.20    1.20    1.00
  WS02006113WS02006111 CONDUIT    915.02     0  03:03      2.58    1.10    1.00
  WS02006112WS02006115 CONDUIT    938.60     0  03:02      1.20    0.55    1.00
  WS02006111WS02006112 CONDUIT    915.40     0  03:03      1.82    0.44    1.00
  WS02006110WS02006113 CONDUIT    914.75     0  03:02      1.82    0.83    1.00
  WS02006109WS02006110 CONDUIT    914.69     0  03:02      1.82    1.76    1.00
  WS02004411WS02004412 CONDUIT    937.98     0  03:03      1.24    1.33    0.92
  WS02004401WS02004402 CONDUIT    938.87     0  03:03      1.20    1.13    1.00
  WS02004413WS02003067 CONDUIT    938.28     0  03:04      1.55    0.40    0.72
  WS02004412WS02004413 CONDUIT    938.09     0  03:04      1.22    0.63    0.95
  WS02004410WS02004411 CONDUIT    938.19     0  03:03      1.23    1.28    0.94
  WS02004409WS02004410 CONDUIT    938.61     0  03:03      1.22    1.21    0.95
  WS02004407WS02004409 CONDUIT    939.46     0  03:03      1.67    0.33    0.68
  WS02004406WS02004407 CONDUIT    939.65     0  03:03      1.60    0.42    0.70
  WS02004405WS02004406 CONDUIT    939.57     0  03:03      1.20    1.85    1.00
  WS02004404WS02004405 CONDUIT    939.41     0  03:03      1.20    9.20    1.00
  WS02004403WS02004404 CONDUIT    939.10     0  03:03      1.20    0.68    1.00
  WS02004402WS02004403 CONDUIT    938.97     0  03:03      1.20    1.35    1.00
  WS02004139WS02001211 CONDUIT    382.95     0  03:16      0.90    0.48    0.64
  WS02004138WS02004139 CONDUIT    394.13     0  00:00      3.62    0.08    0.47
  WS02003067WS02003066 CONDUIT    938.68     0  03:04      1.65    0.30    0.50
  WS02001213WS02003059 CONDUIT    398.69     0  03:15      0.89    0.66    0.87
  WS02001212WS02001213 CONDUIT    395.77     0  03:16      1.32    0.61    0.56
  WS02001211WS02001212 CONDUIT    393.24     0  03:16      0.78    0.30    0.71
  WS02003072WS02003073 CONDUIT   1333.10     0  03:06      1.96    2.88    0.58
  WS02003069WS02003072 CONDUIT   1333.07     0  03:06      1.82    0.64    0.62
  WS02003060WS02003069 CONDUIT   1333.09     0  03:05      2.03    0.52    0.56
  WS02003059WS02003060 CONDUIT    402.24     0  03:15      0.95    0.26    0.77
  HS02004901HS02004770 CONDUIT     37.20     0  03:01      0.10    0.14    0.53
  HS02004876HS02004881 CONDUIT    127.61     0  03:01      1.21    1.36    0.15
  HS02004870HS02004876 CONDUIT    103.08     0  03:01      0.82    0.07    0.18
  HS02004842HS02004848 CONDUIT     16.84     0  03:01      0.07    0.01    0.33
  HS02004837HS02004842 CONDUIT     17.90     0  03:03      0.42    0.01    0.35
  HS02004830HS02004837 CONDUIT     64.63     0  03:01      0.67    0.06    0.14
  HS02004824HS02004830 CONDUIT     64.12     0  03:02      0.62    0.08    0.16
  HS02004817HS02004824 CONDUIT    123.85     0  03:01      0.31    0.06    0.58
  HS02004770HS02004777 CONDUIT    184.92     0  03:01      0.49    0.34    0.54
  HS02004799HS02004480 CONDUIT    444.25     0  03:01      1.07    0.56    0.60
  HS02004792HS02004799 CONDUIT    408.31     0  03:01      1.20    0.25    0.49
  HS02004788HS02004792 CONDUIT    232.93     0  03:02      1.28    0.15    0.26
  HS02004785HS02004788 CONDUIT    181.75     0  03:02      0.91    1.37    0.29
  HS02004777HS02004785 CONDUIT    182.01     0  03:01      0.57    0.22    0.45
  HS02004480HS02004478 CONDUIT    517.22     0  03:01      1.55    2.18    0.48
  HS02004479HS02004480 CONDUIT     77.25     0  03:02      0.30    0.07    0.57
  HS02004862HS02004870 CONDUIT     79.02     0  03:01      0.80    0.09    0.14
  HS02004848HS02004852 CONDUIT     37.83     0  03:01      0.53    0.04    0.10
  HS02004856HS02004862 CONDUIT     54.76     0  03:01      0.59    0.05    0.13
  HS02004852HS02004856 CONDUIT     37.75     0  03:02      0.34    0.04    0.16
  HS02004802HS02004478 CONDUIT    170.15     0  03:04      0.54    0.15    0.48
  HS02004478WS02006287 CONDUIT    677.56     0  03:02      2.11    0.19    0.36
  HS02004817HS02004807 CONDUIT    128.09     0  03:04      0.25    0.08    0.75
  HS02004807HS02004802 CONDUIT    165.30     0  03:04      0.46    0.32    0.53
  YS02001759YS02001757 CONDUIT    619.40     0  02:42      0.79    0.44    1.00
  YS02001762YS02001759 CONDUIT    314.41     0  02:42      0.40    0.36    1.00
  YS02001765YS02001762 CONDUIT    315.02     0  02:42      0.40    0.30    1.00
  YS02001770YS02001767 CONDUIT    315.57     0  02:42      0.40    1.25    1.00
  YS02001774YS02001770 CONDUIT    674.90     0  03:01      0.86    0.43    1.00
  YS02001779YS02001774 CONDUIT    675.61     0  03:01      0.86    0.34    1.00
  YS02001649YS02001757 CONDUIT    877.82     0  02:39      1.12    0.53    1.00
  YS02001767YS02001765 CONDUIT    315.45     0  02:42      0.40    0.40    1.00
  YS02006561YS02001783 CONDUIT   1143.48     0  02:55      2.27    0.59    1.00
  YS02001783YS02001784 CONDUIT   1143.75     0  02:55      2.28    1.58    1.00
  YS02001784YS02001785 CONDUIT   1144.56     0  02:55      2.28    2.66    1.00
  YS02001788YS02001790 CONDUIT   1156.35     0  02:54      2.71    0.85    1.00
  YS02001790YS02001791 CONDUIT   1268.57     0  02:54      3.43    1.38    1.00
  YS02001791YS02001793 CONDUIT   1214.27     0  02:52      6.46    0.52    1.00
  YS02001910YS02001907 CONDUIT    594.42     0  03:01      0.76    0.34    1.00
  YS02001786YS02001788 CONDUIT   1145.44     0  02:55      2.45    2.21    1.00
  YS02001915YS02001910 CONDUIT    595.19     0  03:01      0.76    0.30    1.00
  YS02001918YS02001915 CONDUIT    259.27     0  02:52      0.44    0.14    1.00
  YS02001923YS02001920 CONDUIT    256.21     0  02:52      0.75    0.11    1.00
  YS02001926YS02001923 CONDUIT    234.19     0  02:52      0.86    0.33    0.93
  YS02001929YS02001926 CONDUIT    201.09     0  03:02      0.92    0.10    0.82
  YS02001920YS02001918 CONDUIT    259.01     0  02:52      0.72    0.25    1.00
  YS02001629YS02163301 CONDUIT    203.88     0  02:33      0.26    0.25    1.00
  YS02001619YS02001622 CONDUIT    381.07     0  03:01      0.59    0.56    1.00
  YS02001622YS02001625 CONDUIT    381.55     0  03:01      0.49    0.20    1.00
  YS02001625YS02001629 CONDUIT    195.84     0  02:25      0.25    0.09    1.00
  YS02163301YS02001633 CONDUIT    205.93     0  02:34      0.26    0.19    1.00
  YS02163601YS02164001 CONDUIT    412.23     0  02:40      0.52    0.37    1.00
  YS02164001YS02001641 CONDUIT    412.31     0  02:40      0.52    0.56    1.00
  YS02001641YS02001644 CONDUIT    412.25     0  02:40      0.52    1.33    1.00
  YS02001647YS02001649 CONDUIT    729.20     0  03:10      0.93    0.39    1.00
  YS02006553YS02006556 CONDUIT    719.18     0  02:51      0.92    0.62    1.00
  YS02006556YS02006558 CONDUIT    718.91     0  02:51      0.92    0.57    1.00
  YSB6556YSB1171       CONDUIT     42.82     0  03:02      0.13    0.04    0.82
  YS02001907YS02006553 CONDUIT    718.71     0  02:51      0.80    0.85    1.00
  YS02006558YS02006561 CONDUIT   1143.48     0  02:55      4.04    2.53    1.00
  YS02001633YS02163601 CONDUIT    413.09     0  02:40      0.53    0.43    1.00
  YS02001644YS02001647 CONDUIT    729.23     0  03:10      0.93    0.43    1.00
  YS02001745YS02001748 CONDUIT    550.08     0  02:33      1.46    0.21    0.98
  YS02001748YS02001751 CONDUIT    443.33     0  03:01      1.03    0.22    1.00
  YS02001751YS02001754 CONDUIT    443.47     0  03:01      0.88    0.21    1.00
  YS02001754YS02001757 CONDUIT    442.86     0  03:01      0.56    0.18    1.00
  YS02001882YS02001884 CONDUIT     13.77     0  04:21      0.12    0.02    1.00
  YS02001884YS02001887 CONDUIT     20.96     0  04:18      0.08    0.03    1.00
  YS02001890YS02001895 CONDUIT    517.65     0  02:57      0.66    0.24    1.00
  YS02001895YS02001898 CONDUIT    518.14     0  03:00      0.66    0.90    1.00
  YS02001898YS02001901 CONDUIT    517.82     0  02:58      0.66    0.33    1.00
  YS02001901YS02001904 CONDUIT    517.84     0  02:57      0.66    0.80    1.00
  YS02001904YS02001907 CONDUIT    518.03     0  02:59      0.66    0.18    1.00
  YS02001887YS02001890 CONDUIT    679.59     0  03:01      0.87    1.16    1.00
  YS02001652YS02001649 CONDUIT    501.59     0  03:01      0.64    0.25    1.00
  YS02001655YS02001652 CONDUIT    501.27     0  03:01      0.94    0.24    1.00
  YS02001658YS02001655 CONDUIT    501.07     0  03:01      1.18    0.21    1.00
  YS02001661YS02001658 CONDUIT    603.16     0  02:29      1.52    0.24    1.00
  YS02001664YS02001661 CONDUIT    673.30     0  02:41      1.42    0.21    0.77
  YSB1154YSB6556       CONDUIT     43.26     0  03:01      0.18    0.08    0.73
  YSB1174YSB1171       CONDUIT     36.64     0  03:01      0.11    0.06    0.85
  YSB1171HS02004479    CONDUIT     75.38     0  03:02      0.54    0.05    0.68
  HS02004881HS02006253 CONDUIT    140.46     0  03:01      2.15    0.03    0.54
  YS02001793JiankangQianchi CONDUIT   1176.02     0  02:51     16.63    0.09    1.00
  YS02001757CaochengTiaoxuchi CONDUIT   1682.74     0  02:40      2.18    0.74    1.00
  WSF200WS02003060     CONDUIT    939.06     0  03:04      1.93    0.21    0.45
  1                    CONDUIT   1335.07     0  03:07      3.59    0.46    0.48
  CC-Pump-1            PUMP       200.00     0  03:00              1.00
  CC-Pump-2            PUMP       200.00     0  04:20              1.00
  JK-Pump-1            PUMP       300.00     0  02:00              1.00
  JK-Pump-2            PUMP       683.00     0  02:30              1.00
  XR-Pump-1            PUMP        95.00     0  00:00              1.00
  XR-Pump-2            PUMP        95.00     0  00:00              1.00
  XR-Pump-3            PUMP        95.00     0  00:00              1.00
  XR-Pump-4            PUMP        95.00     0  00:00              1.00
  
  
  ***************************
  Flow Classification Summary
  ***************************
  
  -------------------------------------------------------------------------------------
                      Adjusted    ---------- Fraction of Time in Flow Class ---------- 
                       /Actual         Up    Down  Sub   Sup   Up    Down  Norm  Inlet 
  Conduit               Length    Dry  Dry   Dry   Crit  Crit  Crit  Crit  Ltd   Ctrl  
  -------------------------------------------------------------------------------------
  WS02003066WSF200        1.00   0.01  0.05  0.00  0.00  0.95  0.00  0.00  0.49  0.00
  WS02006287WS02006284    1.00   0.03  0.01  0.00  0.63  0.33  0.00  0.00  0.65  0.00
  WS02006284WS02006280    1.00   0.04  0.00  0.00  0.00  0.00  0.00  0.96  0.00  0.00
  WS02006280WS02006229    1.00   0.04  0.00  0.00  0.01  0.02  0.00  0.93  0.01  0.00
  WS02006229WS02006228    1.00   0.00  0.00  0.00  1.00  0.00  0.00  0.00  0.00  0.00
  WS02006256WS02006235    1.00   0.01  0.00  0.00  0.99  0.00  0.00  0.00  0.00  0.00
  WS02006253WS02006251    1.00   0.02  0.02  0.00  0.96  0.00  0.01  0.00  0.00  0.00
  WS02006252WS02006251    1.00   0.18  0.00  0.00  0.10  0.00  0.71  0.00  0.00  0.00
  WS02006251WS02006249    1.00   0.00  0.00  0.00  1.00  0.00  0.00  0.00  0.26  0.00
  WS02006249WS02006248    1.00   0.00  0.00  0.00  0.88  0.00  0.12  0.00  0.00  0.00
  WS02006248WS02006247    1.00   0.01  0.00  0.00  0.99  0.00  0.00  0.01  0.17  0.00
  WS02006247WS02006245    1.00   0.01  0.00  0.00  0.98  0.00  0.00  0.02  0.00  0.00
  WS02006245WS02006243    1.00   0.01  0.00  0.00  0.94  0.00  0.00  0.05  0.00  0.00
  WS02006243WS02006242    1.00   0.01  0.00  0.00  0.99  0.00  0.00  0.00  0.24  0.00
  WS02006242WS02006240    1.00   0.01  0.00  0.00  0.99  0.00  0.01  0.00  0.00  0.00
  WS02006240WS02006239    1.00   0.01  0.00  0.00  0.94  0.00  0.00  0.05  0.02  0.00
  WS02006239WS02006238    1.00   0.01  0.00  0.00  0.99  0.00  0.00  0.00  0.12  0.00
  WS02006238WS02006235    1.00   0.01  0.00  0.00  0.99  0.00  0.00  0.00  0.00  0.00
  WS02006235WS02006234    1.00   0.01  0.00  0.00  0.96  0.00  0.04  0.00  0.00  0.00
  WS02006234WS02006232    1.00   0.01  0.00  0.00  0.99  0.00  0.00  0.00  0.08  0.00
  WS02006232WS02006231    1.00   0.01  0.00  0.00  0.99  0.00  0.00  0.00  0.00  0.00
  WS02006231WS02006230    1.00   0.01  0.00  0.00  0.72  0.00  0.27  0.00  0.00  0.00
  WS02006230WS02006229    1.00   0.00  0.00  0.00  0.99  0.00  0.00  0.01  0.00  0.00
  WS02006228WS02006109    1.00   0.00  0.00  0.00  1.00  0.00  0.00  0.00  0.00  0.00
  WS02006116WS02004401    1.00   0.01  0.00  0.00  0.99  0.00  0.00  0.00  0.00  0.00
  WS02006115WS02006116    1.00   0.01  0.00  0.00  0.98  0.00  0.00  0.00  0.00  0.00
  WS02006113WS02006111    1.00   0.01  0.00  0.00  0.04  0.95  0.00  0.00  0.16  0.00
  WS02006112WS02006115    1.00   0.01  0.00  0.00  0.99  0.00  0.00  0.00  0.00  0.00
  WS02006111WS02006112    1.00   0.01  0.00  0.00  0.99  0.00  0.00  0.00  0.86  0.00
  WS02006110WS02006113    1.00   0.00  0.01  0.00  0.99  0.00  0.00  0.00  0.00  0.00
  WS02006109WS02006110    1.00   0.00  0.00  0.00  0.99  0.00  0.00  0.00  0.00  0.00
  WS02004411WS02004412    1.00   0.03  0.00  0.00  0.97  0.00  0.00  0.00  0.00  0.00
  WS02004401WS02004402    1.00   0.01  0.00  0.00  0.99  0.00  0.00  0.00  0.00  0.00
  WS02004413WS02003067    1.00   0.03  0.02  0.00  0.00  0.00  0.96  0.00  0.00  0.00
  WS02004412WS02004413    1.00   0.03  0.00  0.00  0.97  0.00  0.00  0.00  0.02  0.00
  WS02004410WS02004411    1.00   0.02  0.00  0.00  0.98  0.00  0.00  0.00  0.03  0.00
  WS02004409WS02004410    1.00   0.02  0.00  0.00  0.98  0.00  0.00  0.00  0.04  0.00
  WS02004407WS02004409    1.00   0.02  0.00  0.00  0.97  0.00  0.00  0.00  0.91  0.00
  WS02004406WS02004407    1.00   0.00  0.02  0.00  0.98  0.00  0.00  0.00  0.00  0.00
  WS02004405WS02004406    1.00   0.00  0.00  0.00  1.00  0.00  0.00  0.00  0.02  0.00
  WS02004404WS02004405    1.00   0.00  0.00  0.00  1.00  0.00  0.00  0.00  0.00  0.00
  WS02004403WS02004404    1.00   0.00  0.01  0.00  0.99  0.00  0.00  0.00  0.00  0.00
  WS02004402WS02004403    1.00   0.01  0.00  0.00  0.99  0.00  0.00  0.00  0.00  0.00
  WS02004139WS02001211    1.00   0.00  0.00  0.00  1.00  0.00  0.00  0.00  0.00  0.00
  WS02004138WS02004139    1.00   0.00  0.00  0.00  1.00  0.00  0.00  0.00  1.00  0.00
  WS02003067WS02003066    1.00   0.04  0.01  0.00  0.95  0.00  0.00  0.00  0.00  0.00
  WS02001213WS02003059    1.00   0.00  0.00  0.00  1.00  0.00  0.00  0.00  0.00  0.00
  WS02001212WS02001213    1.00   0.00  0.00  0.00  0.91  0.00  0.09  0.00  0.00  0.00
  WS02001211WS02001212    1.00   0.00  0.00  0.00  1.00  0.00  0.00  0.00  0.00  0.00
  WS02003072WS02003073    1.00   0.00  0.00  0.00  0.00  0.00  0.00  1.00  0.00  0.00
  WS02003069WS02003072    1.00   0.00  0.00  0.00  1.00  0.00  0.00  0.00  0.12  0.00
  WS02003060WS02003069    1.00   0.00  0.00  0.00  0.99  0.01  0.00  0.00  0.09  0.00
  WS02003059WS02003060    1.00   0.00  0.00  0.00  1.00  0.00  0.00  0.00  0.00  0.00
  HS02004901HS02004770    1.00   0.04  0.00  0.00  0.96  0.00  0.00  0.00  0.00  0.00
  HS02004876HS02004881    1.00   0.00  0.00  0.00  0.92  0.08  0.00  0.00  0.00  0.00
  HS02004870HS02004876    1.00   0.00  0.00  0.00  1.00  0.00  0.00  0.00  0.95  0.00
  HS02004842HS02004848    1.00   0.00  0.04  0.00  0.96  0.00  0.00  0.00  0.54  0.00
  HS02004837HS02004842    1.00   0.00  0.00  0.00  1.00  0.00  0.00  0.00  0.11  0.00
  HS02004830HS02004837    1.00   0.00  0.00  0.00  1.00  0.00  0.00  0.00  0.99  0.00
  HS02004824HS02004830    1.00   0.00  0.00  0.00  1.00  0.00  0.00  0.00  0.01  0.00
  HS02004817HS02004824    1.00   0.00  0.00  0.00  1.00  0.00  0.00  0.00  0.97  0.00
  HS02004770HS02004777    1.00   0.00  0.04  0.00  0.96  0.00  0.00  0.00  0.03  0.00
  HS02004799HS02004480    1.00   0.00  0.01  0.00  0.96  0.00  0.03  0.00  0.00  0.00
  HS02004792HS02004799    1.00   0.00  0.00  0.00  1.00  0.00  0.00  0.00  0.98  0.00
  HS02004788HS02004792    1.00   0.00  0.00  0.00  1.00  0.00  0.00  0.00  0.98  0.00
  HS02004785HS02004788    1.00   0.00  0.00  0.00  1.00  0.00  0.00  0.00  0.00  0.00
  HS02004777HS02004785    1.00   0.00  0.00  0.00  1.00  0.00  0.00  0.00  0.12  0.00
  HS02004480HS02004478    1.00   0.04  0.00  0.00  0.71  0.00  0.00  0.25  0.00  0.00
  HS02004479HS02004480    1.00   0.01  0.00  0.00  0.99  0.00  0.00  0.00  0.12  0.00
  HS02004862HS02004870    1.00   0.00  0.00  0.00  1.00  0.00  0.00  0.00  0.04  0.00
  HS02004848HS02004852    1.00   0.04  0.00  0.00  0.96  0.00  0.00  0.00  0.64  0.00
  HS02004856HS02004862    1.00   0.00  0.05  0.00  0.95  0.00  0.00  0.00  0.83  0.00
  HS02004852HS02004856    1.00   0.04  0.00  0.00  0.96  0.00  0.00  0.00  0.81  0.00
  HS02004802HS02004478    1.00   0.04  0.00  0.00  0.96  0.00  0.00  0.00  0.02  0.00
  HS02004478WS02006287    1.00   0.04  0.00  0.00  0.77  0.19  0.00  0.00  0.65  0.00
  HS02004817HS02004807    1.00   0.00  0.04  0.00  0.96  0.00  0.00  0.00  0.01  0.00
  HS02004807HS02004802    1.00   0.04  0.00  0.00  0.96  0.00  0.00  0.00  0.00  0.00
  YS02001759YS02001757    1.00   0.00  0.00  0.00  1.00  0.00  0.00  0.00  0.16  0.00
  YS02001762YS02001759    1.00   0.00  0.00  0.00  1.00  0.00  0.00  0.00  0.03  0.00
  YS02001765YS02001762    1.00   0.00  0.00  0.00  1.00  0.00  0.00  0.00  0.14  0.00
  YS02001770YS02001767    1.00   0.00  0.00  0.00  1.00  0.00  0.00  0.00  0.00  0.00
  YS02001774YS02001770    1.00   0.00  0.04  0.00  0.96  0.00  0.00  0.00  0.03  0.00
  YS02001779YS02001774    1.00   0.00  0.00  0.00  1.00  0.00  0.00  0.00  0.19  0.00
  YS02001649YS02001757    1.00   0.00  0.00  0.00  1.00  0.00  0.00  0.00  0.16  0.00
  YS02001767YS02001765    1.00   0.00  0.00  0.00  1.00  0.00  0.00  0.00  0.00  0.00
  YS02006561YS02001783    1.00   0.05  0.00  0.00  0.37  0.58  0.00  0.00  0.45  0.00
  YS02001783YS02001784    1.00   0.00  0.05  0.00  0.95  0.00  0.00  0.00  0.00  0.00
  YS02001784YS02001785    1.00   0.00  0.00  0.00  1.00  0.00  0.00  0.00  0.18  0.00
  YS02001788YS02001790    1.00   0.00  0.00  0.00  0.38  0.62  0.00  0.00  0.34  0.00
  YS02001790YS02001791    1.00   0.00  0.00  0.00  0.34  0.66  0.00  0.00  0.42  0.00
  YS02001791YS02001793    1.00   0.00  0.00  0.00  0.39  0.61  0.00  0.00  0.03  0.00
  YS02001910YS02001907    1.00   0.00  0.00  0.00  0.99  0.00  0.00  0.01  0.12  0.00
  YS02001786YS02001788    1.00   0.00  0.00  0.00  0.38  0.62  0.00  0.00  0.00  0.00
  YS02001915YS02001910    1.00   0.00  0.00  0.00  0.99  0.01  0.00  0.00  0.16  0.00
  YS02001918YS02001915    1.00   0.00  0.00  0.00  0.99  0.00  0.00  0.00  0.54  0.00
  YS02001923YS02001920    1.00   0.00  0.00  0.00  1.00  0.00  0.00  0.00  0.82  0.00
  YS02001926YS02001923    1.00   0.00  0.02  0.00  0.15  0.00  0.83  0.00  0.00  0.00
  YS02001929YS02001926    1.00   0.00  0.04  0.00  0.96  0.00  0.00  0.00  0.75  0.00
  YS02001920YS02001918    1.00   0.00  0.00  0.00  1.00  0.00  0.00  0.00  0.00  0.00
  YS02001629YS02163301    1.00   0.04  0.00  0.00  0.96  0.00  0.00  0.00  0.00  0.00
  YS02001619YS02001622    1.00   0.04  0.00  0.00  0.96  0.00  0.00  0.00  0.00  0.00
  YS02001622YS02001625    1.00   0.04  0.00  0.00  0.96  0.00  0.00  0.00  0.05  0.00
  YS02001625YS02001629    1.00   0.04  0.02  0.00  0.93  0.00  0.02  0.00  0.00  0.00
  YS02163301YS02001633    1.00   0.00  0.04  0.00  0.96  0.00  0.00  0.00  0.00  0.00
  YS02163601YS02164001    1.00   0.00  0.02  0.00  0.98  0.00  0.00  0.00  0.00  0.00
  YS02164001YS02001641    1.00   0.00  0.02  0.00  0.98  0.00  0.00  0.00  0.06  0.00
  YS02001641YS02001644    1.00   0.00  0.00  0.00  1.00  0.00  0.00  0.00  0.00  0.00
  YS02001647YS02001649    1.00   0.00  0.05  0.00  0.95  0.00  0.00  0.00  0.01  0.00
  YS02006553YS02006556    1.00   0.00  0.00  0.00  1.00  0.00  0.00  0.00  0.03  0.00
  YS02006556YS02006558    1.00   0.00  0.00  0.00  1.00  0.00  0.00  0.00  0.00  0.00
  YSB6556YSB1171          1.00   0.01  0.02  0.00  0.97  0.00  0.00  0.00  0.00  0.00
  YS02001907YS02006553    1.00   0.00  0.01  0.00  0.99  0.00  0.00  0.00  0.00  0.00
  YS02006558YS02006561    1.00   0.05  0.00  0.00  0.13  0.82  0.00  0.00  0.47  0.00
  YS02001633YS02163601    1.00   0.00  0.00  0.00  1.00  0.00  0.00  0.00  0.15  0.00
  YS02001644YS02001647    1.00   0.00  0.05  0.00  0.95  0.00  0.00  0.00  0.00  0.00
  YS02001745YS02001748    1.00   0.00  0.00  0.00  0.91  0.01  0.00  0.09  0.04  0.00
  YS02001748YS02001751    1.00   0.00  0.00  0.00  0.97  0.03  0.00  0.00  0.15  0.00
  YS02001751YS02001754    1.00   0.00  0.00  0.00  0.94  0.00  0.00  0.06  0.02  0.00
  YS02001754YS02001757    1.00   0.00  0.00  0.00  1.00  0.00  0.00  0.00  0.18  0.00
  YS02001882YS02001884    1.00   0.04  0.00  0.00  0.96  0.00  0.00  0.00  0.00  0.00
  YS02001884YS02001887    1.00   0.02  0.01  0.00  0.97  0.00  0.00  0.00  0.00  0.00
  YS02001890YS02001895    1.00   0.00  0.04  0.00  0.96  0.00  0.00  0.00  0.00  0.00
  YS02001895YS02001898    1.00   0.04  0.00  0.00  0.94  0.00  0.01  0.00  0.00  0.00
  YS02001898YS02001901    1.00   0.04  0.00  0.00  0.96  0.00  0.00  0.00  0.01  0.00
  YS02001901YS02001904    1.00   0.04  0.00  0.00  0.96  0.00  0.00  0.00  0.00  0.00
  YS02001904YS02001907    1.00   0.00  0.04  0.00  0.96  0.00  0.00  0.00  0.00  0.00
  YS02001887YS02001890    1.00   0.00  0.00  0.00  0.99  0.00  0.01  0.00  0.00  0.00
  YS02001652YS02001649    1.00   0.00  0.00  0.00  1.00  0.00  0.00  0.00  0.17  0.00
  YS02001655YS02001652    1.00   0.00  0.00  0.00  0.94  0.00  0.00  0.06  0.02  0.00
  YS02001658YS02001655    1.00   0.00  0.04  0.00  0.93  0.03  0.00  0.00  0.10  0.00
  YS02001661YS02001658    1.00   0.04  0.00  0.00  0.91  0.06  0.00  0.00  0.11  0.00
  YS02001664YS02001661    1.00   0.04  0.00  0.00  0.92  0.04  0.00  0.00  0.20  0.00
  YSB1154YSB6556          1.00   0.03  0.00  0.00  0.97  0.00  0.00  0.00  0.02  0.00
  YSB1174YSB1171          1.00   0.02  0.01  0.00  0.97  0.00  0.00  0.00  0.00  0.00
  YSB1171HS02004479       1.00   0.01  0.00  0.00  0.98  0.00  0.00  0.00  0.10  0.00
  HS02004881HS02006253    1.00   0.02  0.00  0.00  0.66  0.03  0.00  0.30  0.49  0.00
  YS02001793JiankangQianchi    1.00   0.00  0.00  0.00  0.69  0.31  0.00  0.00  0.39  0.00
  YS02001757CaochengTiaoxuchi    1.00   0.00  0.07  0.00  0.93  0.00  0.00  0.00  0.00  0.00
  WSF200WS02003060        1.00   0.00  0.01  0.00  0.98  0.02  0.00  0.00  0.37  0.00
  1                       1.00   0.00  0.00  0.00  0.00  1.00  0.00  0.00  0.51  0.00
  
  
  *************************
  Conduit Surcharge Summary
  *************************
  
  ----------------------------------------------------------------------------
                                                           Hours        Hours 
                         --------- Hours Full --------   Above Full   Capacity
  Conduit                Both Ends  Upstream  Dnstream   Normal Flow   Limited
  ----------------------------------------------------------------------------
  WS02006229WS02006228        3.68      3.83      3.68      4.62         3.68
  WS02006256WS02006235        5.64      5.65      6.77      4.43         0.01
  WS02006253WS02006251        1.52      1.52      1.61      0.01         0.02
  WS02006252WS02006251        1.27      1.27      2.01      1.40         0.01
  WS02006251WS02006249        1.54      1.55      1.64      0.60         0.36
  WS02006249WS02006248        1.55      1.56      1.64      2.73         0.01
  WS02006248WS02006247        1.63      1.63      1.87      0.01         0.01
  WS02006247WS02006245        1.85      1.91      1.85      3.40         1.70
  WS02006245WS02006243        1.89      1.90      2.03      0.24         0.17
  WS02006243WS02006242        2.09      2.09      2.56      0.01         0.01
  WS02006242WS02006240        2.43      2.43      2.71      1.57         0.01
  WS02006240WS02006239        2.46      2.48      2.60      0.66         0.39
  WS02006239WS02006238        2.79      2.83      3.05      0.76         0.51
[...]
  YS02001770YS02001767        5.69      5.69      5.69      0.20         0.62
  YS02001774YS02001770        5.68      5.68      5.74      0.01         0.01
  YS02001779YS02001774        5.56      5.56      5.74      0.01         0.01
  YS02001649YS02001757        5.75      5.75      5.86      0.01         0.01
  YS02001767YS02001765        5.69      5.69      5.72      0.01         0.01
  YS02006561YS02001783        0.86      0.86      1.34      0.01         0.01
  YS02001783YS02001784        1.29      1.34      1.29      1.58         1.18
  YS02001784YS02001785        1.11      1.29      1.11      2.49         1.11
  YS02001788YS02001790        0.92      0.92      2.02      0.01         0.01
  YS02001790YS02001791        2.01      2.02      2.11      1.12         0.89
  YS02001791YS02001793        2.11      2.11      2.54      0.01         0.01
  YS02001910YS02001907        1.24      1.24      1.91      0.01         0.01
  YS02001786YS02001788        0.92      1.11      0.92      2.02         0.92
  YS02001915YS02001910        1.05      1.05      1.24      0.01         0.01
  YS02001918YS02001915        0.86      0.86      1.05      0.01         0.01
  YS02001923YS02001920        0.71      0.71      0.89      0.01         0.01
  YS02001920YS02001918        0.86      0.86      0.89      0.01         0.01
  YS02001629YS02163301        5.67      5.67      5.68      0.01         0.01
  YS02001619YS02001622        5.37      5.37      5.40      0.01         0.01
  YS02001622YS02001625        5.40      5.40      5.64      0.01         0.01
  YS02001625YS02001629        5.38      5.38      5.64      0.01         0.01
  YS02163301YS02001633        5.68      5.68      5.72      0.01         0.01
  YS02163601YS02164001        5.72      5.72      5.75      0.01         0.01
  YS02164001YS02001641        5.72      5.72      5.73      0.01         0.03
  YS02001641YS02001644        5.73      5.73      5.73      1.72         2.00
  YS02001647YS02001649        5.62      5.62      5.75      0.01         0.01
  YS02006553YS02006556        1.47      1.47      1.97      0.01         0.01
  YS02006556YS02006558        1.68      1.68      2.06      0.01         0.01
  YSB6556YSB1171              0.01      0.01      0.07      0.01         0.01
  YS02001907YS02006553        2.52      2.52      2.75      0.01         0.01
  YS02006558YS02006561        0.98      1.43      0.98      2.35         0.98
  YS02001633YS02163601        5.71      5.71      5.75      0.01         0.01
  YS02001644YS02001647        5.62      5.62      5.73      0.01         0.01
  YS02001745YS02001748        0.01      0.01      5.22      0.01         0.01
  YS02001748YS02001751        5.27      5.27      5.38      0.01         0.01
  YS02001751YS02001754        5.38      5.38      5.58      0.01         0.01
  YS02001754YS02001757        5.61      5.61      5.86      0.01         0.01
  YS02001882YS02001884        1.07      1.07      1.09      0.01         0.01
  YS02001884YS02001887        1.14      1.14      1.17      0.01         0.01
  YS02001890YS02001895        1.04      1.04      1.26      0.01         0.01
  YS02001895YS02001898        1.02      1.02      1.04      0.01         0.01
  YS02001898YS02001901        1.04      1.04      1.13      0.01         0.01
  YS02001901YS02001904        1.11      1.11      1.13      0.01         0.01
  YS02001904YS02001907        1.11      1.11      2.00      0.01         0.01
  YS02001887YS02001890        1.20      1.20      1.23      0.16         0.01
  YS02001652YS02001649        5.63      5.63      5.75      0.01         0.01
  YS02001655YS02001652        5.40      5.40      5.61      0.01         0.01
  YS02001658YS02001655        5.25      5.25      5.40      0.01         0.01
  YS02001661YS02001658        0.11      0.11      5.25      0.01         0.01
  YS02001664YS02001661        0.01      0.01      1.31      0.01         0.01
  HS02004881HS02006253        0.01      0.01      0.79      0.01         0.01
  YS02001793JiankangQianchi        2.43      2.43      4.58      0.01         0.01
  YS02001757CaochengTiaoxuchi        5.11      5.11      5.86      0.01         0.01
  
  
  ***************
  Pumping Summary
  ***************
  
  ---------------------------------------------------------------------------------------------------------
                                                  Min       Avg       Max     Total     Power    % Time Off
                        Percent   Number of      Flow      Flow      Flow    Volume     Usage    Pump Curve
  Pump                 Utilized   Start-Ups       LPS       LPS       LPS  10^6 ltr     Kw-hr    Low   High
  ---------------------------------------------------------------------------------------------------------
  CC-Pump-1               57.43           4      0.00    147.80    200.00     2.340      2.20    0.0    0.0
  CC-Pump-2               34.02           5      0.00    102.72    200.00     1.080      1.25    0.0    0.0
  JK-Pump-1               61.69           4      0.00    226.62    300.00     3.834     55.74    0.0    0.0
  JK-Pump-2               53.19           5      0.00    420.17    683.00     6.040     84.89    0.0   97.1
  XR-Pump-1               97.87           2      0.00     93.36     95.00     2.508     23.61    0.0    0.0
  XR-Pump-2               97.87           2      0.00     92.87     95.00     2.451     22.34    0.0    0.0
  XR-Pump-3               97.87           2      0.00     92.87     95.00     2.451     22.34    0.0    0.0
  XR-Pump-4               97.87           2      0.00     92.87     95.00     2.451     22.34    0.0    0.0
  
  
  ***************************
  Link Pollutant Load Summary
  ***************************
  
  ------------------------------------------------------------------------------------------
                                 COD            SS            TN            TP         NH4-N
  Link                            kg            kg            kg            kg            kg
  ------------------------------------------------------------------------------------------
  WS02003066WSF200           858.052      1602.794        22.491         1.970        11.847
  WS02006287WS02006284       319.492       608.143        10.315         1.015         5.679
  WS02006284WS02006280       319.978       608.943        10.361         1.021         5.708
  WS02006280WS02006229       319.918       608.820        10.359         1.021         5.706
  WS02006229WS02006228       856.624      1600.382        21.952         1.893        11.494
  WS02006256WS02006235       225.012       414.934         5.066         0.401         2.578
  WS02006253WS02006251        64.946       127.092         1.443         0.109         0.717
  WS02006252WS02006251       293.803       537.497         6.081         0.435         2.983
  WS02006251WS02006249       347.238       643.715         7.291         0.528         3.588
  WS02006249WS02006248       321.860       594.815         6.771         0.490         3.334
  WS02006248WS02006247       321.332       593.848         6.763         0.490         3.330
  WS02006247WS02006245       320.448       592.254         6.742         0.488         3.320
  WS02006245WS02006243       319.336       590.318         6.712         0.486         3.304
  WS02006243WS02006242       318.707       589.165         6.700         0.485         3.298
  WS02006242WS02006240       318.206       588.175         6.692         0.485         3.295
  WS02006240WS02006239       318.451       588.487         6.706         0.486         3.303
  WS02006239WS02006238       319.576       590.170         6.761         0.492         3.335
  WS02006238WS02006235       320.352       591.298         6.796         0.496         3.355
  WS02006235WS02006234       539.570       996.538        11.674         0.879         5.830
  WS02006234WS02006232       539.184       995.828        11.670         0.879         5.829
  WS02006232WS02006231       538.612       994.801        11.655         0.878         5.822
  WS02006231WS02006230       538.014       993.740        11.642         0.877         5.815
  WS02006230WS02006229       537.351       992.648        11.619         0.875         5.802
  WS02006228WS02006109       856.103      1599.436        21.939         1.892        11.487
  WS02006116WS02004401       870.877      1626.021        22.790         1.993        11.998
  WS02006115WS02006116       871.978      1627.981        22.820         1.996        12.014
  WS02006113WS02006111       862.360      1609.063        22.671         1.985        11.950
  WS02006112WS02006115       873.159      1630.027        22.863         2.000        12.039
  WS02006111WS02006112       862.022      1608.507        22.660         1.984        11.944
  WS02006110WS02006113       862.980      1610.152        22.695         1.988        11.963
  WS02006109WS02006110       864.113      1612.122        22.748         1.993        11.994
  WS02004411WS02004412       861.847      1609.538        22.619         1.983        11.918
  WS02004401WS02004402       869.682      1623.919        22.749         1.989        11.976
  WS02004413WS02003067       858.793      1604.197        22.508         1.972        11.856
  WS02004412WS02004413       860.502      1607.150        22.578         1.979        11.896
  WS02004410WS02004411       863.019      1611.654        22.652         1.986        11.936
  WS02004409WS02004410       864.233      1613.821        22.689         1.989        11.956
  WS02004407WS02004409       865.250      1615.671        22.714         1.991        11.969
  WS02004406WS02004407       865.568      1616.310        22.715         1.991        11.968
  WS02004405WS02004406       867.221      1619.237        22.779         1.997        12.004
  WS02004404WS02004405       868.064      1620.842        22.772         1.995        11.997
  WS02004403WS02004404       867.602      1620.226        22.685         1.983        11.941
  WS02004402WS02004403       868.619      1622.020        22.719         1.987        11.960
  WS02004139WS02001211      1376.328      2285.385       111.700        13.634        68.852
  WS02004138WS02004139      1382.742      2296.097       112.196        13.695        69.156
  WS02003067WS02003066       858.298      1603.243        22.499         1.971        11.852
  WS02001213WS02003059      1409.114      2336.855       115.111        14.065        70.996
  WS02001212WS02001213      1418.379      2352.214       115.860        14.156        71.458
  WS02001211WS02001212      1420.564      2355.787       116.048        14.180        71.574
  WS02003072WS02003073      2367.138      4098.283       147.600        17.291        89.108
  WS02003069WS02003072      2372.184      4106.547       148.002        17.340        89.356
  WS02003060WS02003069      2374.782      4111.067       148.139        17.356        89.437
  WS02003059WS02003060      1405.708      2331.102       114.866        14.036        70.846
  HS02004901HS02004770        13.094        25.473         0.248         0.019         0.116
  HS02004876HS02004881        45.516        90.350         0.999         0.073         0.491
  HS02004870HS02004876        34.382        68.105         0.798         0.060         0.395
  HS02004842HS02004848         6.456        12.343         0.134         0.009         0.062
  HS02004837HS02004842        11.055        19.635         0.603         0.068         0.356
  HS02004830HS02004837        70.296       122.724         4.643         0.552         2.827
  HS02004824HS02004830        71.068       123.981         4.715         0.561         2.871
  HS02004817HS02004824        97.162       176.406         5.254         0.596         3.135
  HS02004770HS02004777        49.661        97.712         1.021         0.069         0.472
  HS02004799HS02004480       162.324       310.839         4.263         0.379         2.209
  HS02004792HS02004799       147.273       280.122         4.028         0.367         2.105
  HS02004788HS02004792        82.816       157.687         2.666         0.255         1.440
  HS02004785HS02004788        51.120       100.048         1.172         0.089         0.567
  HS02004777HS02004785        50.445        98.942         1.112         0.081         0.530
  HS02004480HS02004478       204.826       395.199         4.972         0.429         2.544
  HS02004479HS02004480        46.129        90.115         1.037         0.091         0.538
  HS02004862HS02004870        25.799        50.340         0.628         0.050         0.314
  HS02004848HS02004852        10.251        19.884         0.210         0.014         0.097
  HS02004856HS02004862        17.524        34.749         0.350         0.023         0.164
  HS02004852HS02004856        10.255        19.889         0.210         0.014         0.097
  HS02004802HS02004478       115.338       214.046         5.397         0.592         3.169
  HS02004478WS02006287       319.705       608.512        10.332         1.017         5.690
  HS02004817HS02004807        95.856       174.310         5.130         0.581         3.057
  HS02004807HS02004802       115.595       214.448         5.430         0.596         3.189
  YS02001759YS02001757       344.493       632.030         6.891         0.479         3.367
  YS02001762YS02001759       187.143       344.422         3.922         0.276         1.936
  YS02001765YS02001762       187.967       346.619         3.958         0.279         1.957
  YS02001770YS02001767       189.166       350.848         3.799         0.253         1.846
  YS02001774YS02001770       271.017       527.973         5.191         0.346         2.508
  YS02001779YS02001774       269.955       525.807         5.275         0.360         2.568
  YS02001649YS02001757       337.498       612.344         6.781         0.467         3.262
  YS02001767YS02001765       189.175       349.487         3.995         0.282         1.977
  YS02006561YS02001783      1033.321      1916.197        21.636         1.614        10.765
  YS02001783YS02001784      1033.180      1915.968        21.632         1.614        10.762
  YS02001784YS02001785      1040.505      1927.705        22.344         1.703        11.208
  YS02001788YS02001790      1041.067      1928.614        22.416         1.712        11.254
  YS02001790YS02001791      1042.116      1930.352        22.516         1.725        11.316
  YS02001791YS02001793      1042.091      1930.309        22.513         1.725        11.314
  YS02001910YS02001907       391.208       721.570         9.385         0.718         4.808
  YS02001786YS02001788      1040.723      1928.086        22.373         1.707        11.226
  YS02001915YS02001910       391.270       721.673         9.337         0.711         4.776
  YS02001918YS02001915       186.161       328.397         5.122         0.466         2.758
  YS02001923YS02001920       165.501       294.961         3.163         0.222         1.535
  YS02001926YS02001923       164.483       293.256         3.098         0.214         1.495
  YS02001929YS02001926       164.242       292.856         3.066         0.210         1.475
  YS02001920YS02001918       185.276       326.590         5.075         0.461         2.730
  YS02001629YS02163301        96.209       170.125         2.031         0.131         0.947
  YS02001619YS02001622       175.875       321.137         3.602         0.236         1.684
  YS02001622YS02001625       174.687       319.248         3.573         0.234         1.671
  YS02001625YS02001629        97.292       171.897         2.055         0.133         0.958
  YS02163301YS02001633        96.542       170.940         2.033         0.132         0.949
  YS02163601YS02164001       405.837       733.361         7.901         0.562         3.785
  YS02164001YS02001641       405.284       732.421         7.880         0.560         3.773
  YS02001641YS02001644       405.340       732.434         7.876         0.560         3.770
  YS02001647YS02001649       439.956       810.187         8.720         0.606         4.165
  YS02006553YS02006556       699.358      1286.556        15.009         1.148         7.551
  YS02006556YS02006558       699.330      1286.487        14.981         1.144         7.532
  YSB6556YSB1171              26.524        51.971         0.537         0.045         0.272
  YS02001907YS02006553       699.454      1286.761        15.017         1.149         7.556
  YS02006558YS02006561      1033.337      1916.228        21.636         1.614        10.764
  YS02001633YS02163601       406.567       734.500         7.882         0.558         3.769
  YS02001644YS02001647       446.985       822.812         8.831         0.614         4.215
  YS02001745YS02001748       248.463       464.940         5.353         0.363         2.643
  YS02001748YS02001751       247.198       462.415         5.437         0.377         2.703
  YS02001751YS02001754       246.211       460.789         5.418         0.376         2.695
  YS02001754YS02001757       246.971       461.925         5.583         0.398         2.802
  YS02001882YS02001884         2.937         5.071         0.060         0.005         0.030
  YS02001884YS02001887         6.851        12.129         0.135         0.011         0.067
  YS02001890YS02001895       451.118       846.744         8.304         0.625         4.051
  YS02001895YS02001898       450.983       846.584         8.298         0.624         4.047
  YS02001898YS02001901       450.824       846.313         8.295         0.624         4.046
  YS02001901YS02001904       450.693       846.140         8.302         0.625         4.050
  YS02001904YS02001907       450.929       846.505         8.355         0.632         4.085
  YS02001887YS02001890       468.350       880.916         8.647         0.653         4.223
  YS02001652YS02001649       202.799       376.874         4.083         0.294         1.915
  YS02001655YS02001652       203.416       377.874         4.099         0.295         1.923
  YS02001658YS02001655       202.964       377.146         4.014         0.284         1.867
  YS02001661YS02001658       206.772       383.916         4.092         0.289         1.903
  YS02001664YS02001661       219.780       405.052         4.389         0.309         2.039
  YSB1154YSB6556              26.086        51.272         0.486         0.038         0.239
  YSB1174YSB1171              18.023        35.564         0.362         0.029         0.181
  YSB1171HS02004479           46.095        90.062         1.040         0.092         0.541
  HS02004881HS02006253        51.630       102.896         1.108         0.080         0.543
  YS02001793JiankangQianchi      1042.367      1930.627        22.529         1.726        11.324
  YS02001757CaochengTiaoxuchi       583.241      1057.438        12.212         0.867         5.992
  WSF200WS02003060           858.099      1602.760        22.516         1.974        11.864
  1                         2373.424      4107.369       148.425        17.398        89.633
  CC-Pump-1                  200.973       367.579         4.161         0.298         2.041
  CC-Pump-2                   92.804       169.874         1.918         0.137         0.940
  JK-Pump-1                  292.079       544.651         6.367         0.496         3.215
  JK-Pump-2                  484.567       902.792        10.025         0.746         4.978
  XR-Pump-1                  356.075       590.696        29.034         3.547        17.904
  XR-Pump-2                  343.428       570.462        27.820         3.395        17.145
  XR-Pump-3                  343.428       570.462        27.820         3.395        17.145
  XR-Pump-4                  343.428       570.462        27.820         3.395        17.145
  

  Analysis begun on:  Thu Jul 15 16:23:26 2021
  Analysis ended on:  Thu Jul 15 16:23:29 2021
  Total elapsed time: 00:00:03