
  EPA STORM WATER MANAGEMENT MODEL - VERSION 5.1 (Build 5.3.0.dev0)
  --------------------------------------------------------------

  WARNING 04: minimum elevation drop used for Conduit WS02004404WS02004405
  WARNING 03: negative offset ignored for Link YS02001904YS02001907
  
  *********************************************************
  NOTE: The summary statistics displayed in this report are
  based on results found at every computational time step,  
  not just on results from each reporting time step.
  *********************************************************
  
  ****************
  Analysis Options
  ****************
  Flow Units ............... LPS
  Process Models:
    Rainfall/Runoff ........ YES
    RDII ................... NO
    Snowmelt ............... NO
    Groundwater ............ NO
    Flow Routing ........... YES
    Ponding Allowed ........ NO
    Water Quality .......... YES
  Infiltration Method ...... HORTON
  Flow Routing Method ...... DYNWAVE
  Surcharge Method ......... EXTRAN
  Starting Date ............ 08/28/2015 08:00:00
  Ending Date .............. 08/28/2015 15:50:00
  Antecedent Dry Days ...... 8.0
  Report Time Step ......... 00:01:00
  Wet Time Step ............ 00:01:00
  Dry Time Step ............ 00:01:00
  Routing Time Step ........ 5.00 sec
  Variable Time Step ....... YES
  Maximum Trials ........... 8
  Number of Threads ........ 4
  Head Tolerance ........... 0.001500 m
  
  
  **************************        Volume         Depth
  Runoff Quantity Continuity     hectare-m            mm
  **************************     ---------       -------
  Total Precipitation ......         6.144        13.452
  Evaporation Loss .........         0.000         0.000
  Infiltration Loss ........         1.064         2.328
  Surface Runoff ...........         4.147         9.079
  Final Storage ............         0.935         2.047
  Continuity Error (%) .....        -0.020
  
  
  **************************           COD            SS            TN            TP         NH4-N
  Runoff Quality Continuity             kg            kg            kg            kg            kg
  **************************    ----------    ----------    ----------    ----------    ----------
  Initial Buildup ..........     41378.656     70582.865      1804.177       168.684      1032.807
  Surface Buildup ..........        21.799        40.924         2.400         0.218         1.395
  Wet Deposition ...........         0.000         0.000         0.000         0.000         0.000
  Sweeping Removal .........         0.000         0.000         0.000         0.000         0.000
  Infiltration Loss ........        97.311       184.943         1.849         0.130         0.881
  BMP Removal ..............         0.000         0.000         0.000         0.000         0.000
  Surface Runoff ...........      3769.819      7064.251        72.781         4.964        34.599
  Remaining Buildup ........     37531.916     63371.884      1731.919       163.806       998.709
  Continuity Error (%) .....         0.003         0.004         0.002         0.001         0.001
  
  
  **************************        Volume        Volume
  Flow Routing Continuity        hectare-m      10^6 ltr
  **************************     ---------     ---------
  Dry Weather Inflow .......         0.616         6.165
  Wet Weather Inflow .......         4.145        41.452
  Groundwater Inflow .......         0.000         0.000
  RDII Inflow ..............         0.000         0.000
  External Inflow ..........         0.102         1.024
  External Outflow .........         1.760        17.604
  Flooding Loss ............         2.651        26.514
  Evaporation Loss .........         0.000         0.000
  Exfiltration Loss ........         0.000         0.000
  Initial Stored Volume ....         0.076         0.761
  Final Stored Volume ......         0.653         6.534
  Continuity Error (%) .....        -2.535
  
  
  **************************           COD            SS            TN            TP         NH4-N
  Quality Routing Continuity            kg            kg            kg            kg            kg
  **************************    ----------    ----------    ----------    ----------    ----------
  Dry Weather Inflow .......      1541.201      2465.922       147.955        18.494        92.472
  Wet Weather Inflow .......      3769.016      7062.881        72.763         4.963        34.591
  Groundwater Inflow .......         0.000         0.000         0.000         0.000         0.000
  RDII Inflow ..............         0.000         0.000         0.000         0.000         0.000
  External Inflow ..........       183.418       293.469        17.608         2.201        11.005
  External Outflow .........      2190.513      3777.279       143.386        16.953        86.948
  Flooding Loss ............      2579.756      4786.720        66.503         5.783        34.948
  Exfiltration Loss ........         0.000         0.000         0.000         0.000         0.000
  Mass Reacted .............         0.000         0.000         0.000         0.000         0.000
  Initial Stored Mass ......         0.000         0.000         0.000         0.000         0.000
  Final Stored Mass ........       582.809      1018.086        24.864         2.635        14.336
  Continuity Error (%) .....         2.559         2.445         1.499         1.123         1.331
  
  
  *************************
  Highest Continuity Errors
  *************************
  Node HS02004842 (13.41%)
  Node YS02001884 (12.22%)
  Node JK-storage (-12.06%)
  Node HS02004817 (2.53%)
  Node YSB1171 (2.46%)
  
  
  ***************************
  Time-Step Critical Elements
  ***************************
  Link WS02006252WS02006251 (50.71%)
  Link WS02006280WS02006229 (13.67%)
  Link YS02001793JiankangQianchi (8.64%)
  Link WS02006238WS02006235 (7.50%)
  Link YS02006556YS02006558 (7.16%)
  
  
  ********************************
  Highest Flow Instability Indexes
  ********************************
  Link WS02006113WS02006111 (46)
  Link YS02163601YS02164001 (33)
  Link YS02163301YS02001633 (31)
  Link YS02001629YS02163301 (31)
  Link YS02164001YS02001641 (29)
  
  
  *************************
  Routing Time Step Summary
  *************************
  Minimum Time Step           :     0.50 sec
  Average Time Step           :     1.47 sec
  Maximum Time Step           :     5.00 sec
  Percent in Steady State     :    -0.00
  Average Iterations per Step :     3.93
  Percent Not Converging      :    16.05
  
  
  ***************************
  Subcatchment Runoff Summary
  ***************************
  
  ------------------------------------------------------------------------------------------------------------------------------
                            Total      Total      Total      Total     Imperv       Perv      Total       Total     Peak  Runoff
                           Precip      Runon       Evap      Infil     Runoff     Runoff     Runoff      Runoff   Runoff   Coeff
  Subcatchment                 mm         mm         mm         mm         mm         mm         mm    10^6 ltr      LPS
  ------------------------------------------------------------------------------------------------------------------------------
  sub0                      13.45       0.00       0.00       0.63      12.47       0.31      12.77        0.01     3.75   0.950
  sub1                      13.45       0.00       0.00       1.12      11.88       0.36      12.24        0.08    25.66   0.910
  sub2                      13.45       0.00       0.00       4.44       8.39       0.53       8.92        0.08    25.29   0.663
  sub3                      13.45       0.00       0.00       4.56       8.35       0.42       8.77        0.20    55.75   0.652
  sub4                      13.45       0.00       0.00       1.22      11.71       0.26      11.97        0.25    65.52   0.890
  sub5                      13.45       0.00       0.00       0.68      12.41       0.26      12.67        0.14    44.76   0.942
  sub7                      13.45       0.00       0.00       0.86      12.18       0.35      12.53        0.04    14.26   0.931
  sub8                      13.45       0.00       0.00       0.87      12.17       0.34      12.50        0.08    26.26   0.930
  sub9                      13.45       0.00       0.00       0.88      12.17       0.33      12.50        0.06    19.64   0.929
  sub10                     13.45       0.00       0.00       0.78      12.29       0.29      12.58        0.14    44.00   0.935
  sub11                     13.45       0.00       0.00       0.77      12.30       0.31      12.61        0.15    48.45   0.938
  sub12                     13.45       0.00       0.00       1.25      11.66       0.50      12.16        0.11    38.10   0.904
  sub14                     13.45       0.00       0.00       0.88      12.16       0.33      12.49        0.12    38.67   0.929
  sub15                     13.45       0.00       0.00       3.37       9.35       0.66      10.01        0.17    57.01   0.744
  sub16                     13.45       0.00       0.00       3.56       8.97       0.88       9.85        0.10    37.63   0.732
  sub17                     13.45       0.00       0.00       3.47       9.10       0.84       9.94        0.09    30.67   0.739
  sub22                     13.45       0.00       0.00       4.98       7.63       0.81       8.43        0.53   184.54   0.627
  sub23                     13.45       0.00       0.00       4.17       8.43       0.81       9.24        0.44   154.22   0.687
  sub60                     13.45       0.00       0.00       1.53       9.85       0.09       9.93        3.01   438.14   0.738
  sub61                     13.45       0.00       0.00       2.16       9.95       0.12      10.07        3.11   536.45   0.749
  sub62                     13.45       0.00       0.00       0.98      10.84       0.10      10.94        3.36   552.35   0.813
  sub63                     13.45       0.00       0.00       3.77       8.69       0.14       8.83        2.67   492.63   0.656
  sub64                     13.45       0.00       0.00       1.93       9.45       0.09       9.54        2.90   416.72   0.709
  sub65                     13.45       0.00       0.00       1.67       9.61       0.08       9.70        2.98   423.09   0.721
  sub66                     13.45       0.00       0.00       3.81       8.10       0.09       8.18        2.51   380.66   0.608
  sub67                     13.45       0.00       0.00       0.95      11.38       0.13      11.51        3.55   679.52   0.856
  sub68                     13.45       0.00       0.00       1.75      10.45       0.13      10.59        3.26   586.26   0.787
  sub69                     13.45       0.00       0.00       1.83      10.79       0.19      10.98        2.57   544.72   0.816
  sub70                     13.45      11.20       0.00       7.51      14.65       0.88      15.52        3.55   494.81   0.630
  sub71                     13.45       0.00       0.00       0.99      10.58       0.09      10.67        2.52   389.24   0.793
  sub72                     13.45       0.00       0.00       0.89       8.56       0.05       8.61        1.75   189.18   0.640
  1                         13.45      15.11       0.00       1.37      16.56       4.63      21.19        4.98   484.42   0.742
  2                         13.45       0.00       0.00       3.02       3.21       1.96       5.17        2.07   340.45   0.384
  
  
  ****************************
  Subcatchment Washoff Summary
  ****************************
  
  ------------------------------------------------------------------------------------------
                                 COD            SS            TN            TP         NH4-N
  Subcatchment                    kg            kg            kg            kg            kg
  ------------------------------------------------------------------------------------------
  sub0                         2.670         5.197         0.046         0.004         0.022
  sub1                        11.241        22.423         0.210         0.015         0.101
  sub2                         6.894        13.384         0.145         0.010         0.067
  sub3                        16.924        32.573         0.350         0.024         0.161
  sub4                        25.772        51.904         0.510         0.031         0.245
  sub5                        25.778        50.682         0.460         0.035         0.223
  sub7                         5.751        11.638         0.108         0.007         0.052
  sub8                         8.581        17.755         0.171         0.010         0.082
  sub9                         7.353        15.005         0.142         0.009         0.068
  sub10                       21.202        42.223         0.389         0.028         0.188
  sub11                       20.657        41.614         0.386         0.026         0.187
  sub12                       17.724        35.094         0.321         0.024         0.155
  sub14                       15.732        31.800         0.298         0.020         0.144
  sub15                       20.231        39.321         0.389         0.028         0.182
  sub16                       13.129        25.518         0.249         0.019         0.117
  sub17                       12.049        23.208         0.222         0.017         0.105
  sub22                       62.582       119.432         1.186         0.090         0.554
  sub23                       36.683        72.439         0.776         0.051         0.357
  sub60                      243.520       456.962         4.842         0.298         2.321
  sub61                      302.151       564.434         5.627         0.386         2.710
  sub62                      313.722       596.076         6.119         0.388         2.938
  sub63                      223.275       410.850         4.468         0.314         2.075
  sub64                      305.877       553.773         5.626         0.410         2.687
  sub65                      313.037       569.066         5.795         0.415         2.772
  sub66                      176.068       321.340         3.608         0.236         1.687
  sub67                      466.222       877.505         8.365         0.616         4.045
  sub68                      332.037       626.413         6.347         0.429         3.034
  sub69                      298.258       568.561         5.590         0.393         2.674
  sub70                      502.897       962.303        10.037         0.699         4.710
  sub71                      206.745       396.330         4.242         0.246         2.030
  sub72                      164.385       293.107         3.069         0.210         1.476
  1                          349.075       671.606         7.102         0.495         3.297
  2                           42.749        75.577         1.214         0.073         0.518
  ------------------------------------------------------------------------------------------
  System                    4570.974      8595.115        88.408         6.057        41.983
  
  
  ******************
  Node Depth Summary
  ******************
  
  ---------------------------------------------------------------------------------
                                 Average  Maximum  Maximum  Time of Max    Reported
                                   Depth    Depth      HGL   Occurrence   Max Depth
  Node                 Type       Meters   Meters   Meters  days hr:min      Meters
  ---------------------------------------------------------------------------------
  WS02001211           JUNCTION     0.76     0.85     5.69     0  03:07        0.85
  WS02001212           JUNCTION     0.47     0.58     5.64     0  03:06        0.58
  WS02001213           JUNCTION     0.70     0.85     5.62     0  03:06        0.85
  WS02003069           JUNCTION     0.48     0.72     5.30     0  03:05        0.72
  WS02003072           JUNCTION     0.55     0.76     5.13     0  03:06        0.76
  WS02003073           JUNCTION     0.33     0.48     4.54     0  03:07        0.48
  WS02003060           JUNCTION     0.43     0.63     5.57     0  03:05        0.63
  WS02003066           JUNCTION     0.22     0.39     5.94     0  03:04        0.39
  WS02003059           JUNCTION     0.75     0.91     5.60     0  03:05        0.91
  WS02003067           JUNCTION     0.54     0.82     6.14     0  03:04        0.82
  WS02004401           JUNCTION     0.66     1.23     7.23     0  03:01        1.23
  WS02004402           JUNCTION     0.69     1.22     7.18     0  03:01        1.22
  WS02004403           JUNCTION     0.71     1.20     7.13     0  03:01        1.19
  WS02004404           JUNCTION     0.79     1.25     7.10     0  03:01        1.24
  WS02004406           JUNCTION     0.79     1.16     6.99     0  03:01        1.16
  WS02004409           JUNCTION     0.47     0.96     6.73     0  03:03        0.96
  WS02004410           JUNCTION     0.49     0.95     6.67     0  03:03        0.95
  WS02004411           JUNCTION     0.50     0.93     6.61     0  03:03        0.93
  WS02004412           JUNCTION     0.51     0.90     6.54     0  03:04        0.90
  WS02004413           JUNCTION     0.67     1.02     6.49     0  03:04        1.02
  WS02004405           JUNCTION     0.78     1.21     7.06     0  03:01        1.21
  WS02006109           JUNCTION     0.76     1.65     8.27     0  03:02        1.64
  WS02006110           JUNCTION     0.75     1.44     8.03     0  03:02        1.44
  WS02006111           JUNCTION     0.23     0.88     7.59     0  03:02        0.88
  WS02006112           JUNCTION     0.84     1.56     7.44     0  03:01        1.55
  WS02006113           JUNCTION     0.34     0.92     7.81     0  03:02        0.92
  WS02006115           JUNCTION     0.56     1.21     7.35     0  03:02        1.21
  WS02006116           JUNCTION     0.64     1.26     7.30     0  03:02        1.26
  WS02006230           JUNCTION     0.74     1.87     8.62     0  03:02        1.87
  WS02006231           JUNCTION     0.49     1.52     8.64     0  03:02        1.51
  WS02006232           JUNCTION     0.62     1.62     8.66     0  03:02        1.61
  WS02006234           JUNCTION     0.54     1.52     8.68     0  03:02        1.52
  WS02006235           JUNCTION     0.57     1.54     8.70     0  03:01        1.52
  WS02006238           JUNCTION     0.59     1.55     8.70     0  03:01        1.54
  WS02006240           JUNCTION     0.47     1.40     8.69     0  03:02        1.40
  WS02006242           JUNCTION     0.51     1.42     8.69     0  03:02        1.42
  WS02006243           JUNCTION     0.39     1.27     8.69     0  03:00        1.27
  WS02006245           JUNCTION     0.35     1.21     8.70     0  03:01        1.21
  WS02006247           JUNCTION     0.36     1.20     8.70     0  02:58        1.19
  WS02006248           JUNCTION     0.30     1.10     8.69     0  02:57        1.10
  WS02006249           JUNCTION     0.32     1.09     8.69     0  02:56        1.09
  WS02006239           JUNCTION     0.54     1.49     8.69     0  03:01        1.48
  WS02006251           JUNCTION     0.29     1.41     9.08     0  03:29        1.10
  WS02006252           JUNCTION     0.19     0.97     9.21     0  03:29        0.65
  WS02006253           JUNCTION     0.32     1.44     9.08     0  03:29        1.14
  WS02006256           JUNCTION     1.80     2.35     9.28     0  00:00        2.35
  WS02004138           JUNCTION     0.19     0.20     7.45     0  00:00        0.19
  WS02004139           JUNCTION     0.71     0.79     5.70     0  03:07        0.79
  WS02004407           JUNCTION     0.21     0.40     6.71     0  03:03        0.40
  WS02006228           JUNCTION     0.77     1.82     8.47     0  03:02        1.82
  WS02006229           JUNCTION     0.75     1.90     8.59     0  03:02        1.89
  WS02006280           JUNCTION     0.08     0.30     8.57     0  03:05        0.30
  WS02006284           JUNCTION     0.38     0.65     9.04     0  03:02        0.64
  WS02006287           JUNCTION     0.11     0.39     9.34     0  03:02        0.39
  WSF200               JUNCTION     0.21     0.44     5.67     0  03:04        0.44
  HS02004901           JUNCTION     0.14     0.38    10.20     0  03:01        0.37
  HS02004881           JUNCTION     0.01     0.05     9.08     0  03:01        0.05
  HS02004876           JUNCTION     0.05     0.16     9.19     0  03:01        0.16
  HS02004870           JUNCTION     0.02     0.09     9.38     0  03:01        0.09
  HS02004862           JUNCTION     0.02     0.11     9.49     0  03:01        0.11
  HS02004856           JUNCTION     0.08     0.15     9.58     0  03:01        0.15
  HS02004852           JUNCTION     0.01     0.07     9.59     0  03:02        0.07
  HS02004848           JUNCTION     0.01     0.07     9.67     0  03:01        0.07
  HS02004842           JUNCTION     0.34     0.40     9.67     0  03:01        0.40
  HS02004837           JUNCTION     0.03     0.09     9.67     0  03:01        0.09
  HS02004830           JUNCTION     0.04     0.10     9.57     0  03:02        0.10
  HS02004824           JUNCTION     0.03     0.13     9.53     0  03:02        0.13
  HS02004817           JUNCTION     0.45     0.69     9.54     0  03:02        0.69
  HS02004807           JUNCTION     0.14     0.36     9.53     0  03:02        0.36
  HS02004802           JUNCTION     0.17     0.39     9.52     0  03:02        0.39
  HS02004799           JUNCTION     0.14     0.46     9.68     0  03:01        0.46
  HS02004792           JUNCTION     0.04     0.22     9.74     0  03:01        0.21
  HS02004788           JUNCTION     0.03     0.16    10.05     0  03:02        0.16
  HS02004785           JUNCTION     0.06     0.25    10.15     0  03:02        0.25
  HS02004777           JUNCTION     0.16     0.39    10.19     0  03:01        0.39
  HS02004770           JUNCTION     0.13     0.37    10.20     0  03:01        0.36
  HS02004480           JUNCTION     0.09     0.38     9.62     0  03:01        0.38
  HS02004479           JUNCTION     0.13     0.42     9.62     0  03:01        0.42
  HS02004478           JUNCTION     0.07     0.28     9.50     0  03:01        0.28
  YS02001745           JUNCTION     0.72     0.95     8.47     0  03:00        0.95
  YS02001748           JUNCTION     1.11     1.61     8.69     0  02:32        1.39
  YS02001751           JUNCTION     1.29     1.59     8.47     0  03:18        1.58
  YS02001754           JUNCTION     1.54     1.85     8.46     0  03:18        1.84
  YS02001762           JUNCTION     1.74     2.05     8.45     0  03:18        2.04
  YS02001765           JUNCTION     1.69     2.00     8.45     0  03:06        1.99
  YS02001767           JUNCTION     1.66     1.95     8.44     0  03:06        1.94
  YS02001770           JUNCTION     1.65     1.94     8.43     0  03:01        1.92
  YS02001774           JUNCTION     1.72     1.99     8.41     0  03:01        1.98
  YS02001779           JUNCTION     1.46     1.68     8.37     0  02:42        1.68
  YS02001882           JUNCTION     0.61     1.64     8.35     0  03:00        1.63
  YS02001884           JUNCTION     0.71     1.73     8.35     0  03:00        1.73
  YS02001759           JUNCTION     1.77     2.09     8.45     0  03:06        2.08
  YS02001887           JUNCTION     0.78     1.81     8.35     0  02:59        1.81
  YS02001890           JUNCTION     0.81     1.81     8.32     0  02:46        1.81
  YS02001898           JUNCTION     0.58     1.56     8.30     0  02:54        1.56
  YS02001901           JUNCTION     0.70     1.68     8.29     0  02:54        1.67
  YS02001904           JUNCTION     0.68     1.64     8.27     0  03:01        1.63
  YS02001907           JUNCTION     1.00     1.96     8.25     0  02:46        1.96
  YS02001910           JUNCTION     0.80     1.79     8.30     0  02:47        1.77
  YS02001915           JUNCTION     0.60     1.60     8.32     0  02:47        1.60
  YS02001918           JUNCTION     0.34     1.30     8.36     0  02:47        1.29
  YS02001619           JUNCTION     1.25     1.50     8.43     0  02:32        1.49
  YS02001629           JUNCTION     1.60     1.85     8.40     0  02:32        1.84
  YS02001641           JUNCTION     1.70     1.94     8.37     0  02:52        1.93
  YS02001644           JUNCTION     1.70     1.92     8.35     0  02:40        1.92
  YS02001652           JUNCTION     1.55     2.04     8.63     0  02:52        1.87
  YS02001655           JUNCTION     1.32     2.00     8.85     0  02:52        1.65
  YS02001920           JUNCTION     0.44     1.38     8.39     0  02:47        1.37
  YS02001923           JUNCTION     0.27     1.15     8.41     0  02:47        1.14
  YS02001926           JUNCTION     0.31     0.96     8.40     0  02:46        0.94
  YS02001929           JUNCTION     0.19     0.72     8.42     0  02:46        0.69
  YS02001658           JUNCTION     1.06     1.92     9.06     0  02:52        1.38
  YS02001661           JUNCTION     0.83     1.87     9.27     0  02:52        1.18
  YS02001664           JUNCTION     0.38     0.57     8.50     0  04:07        0.56
  YS02001622           JUNCTION     1.27     1.51     8.41     0  02:32        1.50
  YS02001633           JUNCTION     1.69     1.95     8.40     0  03:00        1.94
  YS02001649           JUNCTION     1.75     2.05     8.44     0  02:45        2.04
  YS02001757           JUNCTION     1.87     2.19     8.45     0  03:18        2.18
  YS02001895           JUNCTION     0.58     1.57     8.31     0  02:52        1.56
  YS02001625           JUNCTION     1.55     1.78     8.38     0  02:32        1.78
  YS02163301           JUNCTION     1.63     1.88     8.40     0  02:56        1.88
  YS02163601           JUNCTION     1.74     1.99     8.39     0  02:41        1.98
  YS02164001           JUNCTION     1.68     1.92     8.37     0  02:40        1.91
  YS02001647           JUNCTION     1.53     1.80     8.41     0  02:49        1.78
  YSB1154              JUNCTION     0.27     0.57     9.62     0  03:01        0.57
  YSB6556              JUNCTION     0.16     0.45     9.62     0  03:02        0.45
  YSB1174              JUNCTION     0.22     0.52     9.62     0  03:01        0.51
  YSB1171              JUNCTION     0.42     0.72     9.62     0  03:01        0.72
  YS02006553           JUNCTION     1.00     1.97     8.26     0  03:00        1.96
  YS02006561           JUNCTION     0.35     1.08     7.74     0  02:49        1.07
  YS02006556           JUNCTION     0.97     1.93     8.24     0  02:59        1.93
  YS02006558           JUNCTION     1.01     1.98     8.25     0  03:00        1.97
  YS02001783           JUNCTION     0.58     1.72     7.86     0  02:35        1.46
  YS02001784           JUNCTION     0.59     1.54     7.61     0  02:35        1.40
  YS02001786           JUNCTION     0.52     1.43     7.46     0  02:35        1.25
  YS02001788           JUNCTION     0.44     1.41     7.38     0  02:35        1.12
  YS02001790           JUNCTION     0.55     1.71     7.36     0  02:35        1.28
  YS02001791           JUNCTION     0.51     2.72     8.19     0  02:34        1.27
  YS02001793           JUNCTION     0.71     2.15     6.98     0  02:34        1.80
  WSC                  OUTFALL      0.33     0.48     1.15     0  03:07        0.48
  JK-storage           STORAGE      2.89     5.80     6.60     0  02:35        5.80
  CC-storage           STORAGE      1.13     1.45     8.45     0  03:16        1.45
  XR-storage           STORAGE      6.62     7.72     5.72     0  02:53        7.72
  
  
  *******************
  Node Inflow Summary
  *******************
  
  -------------------------------------------------------------------------------------------------
                                  Maximum  Maximum                  Lateral       Total        Flow
                                  Lateral    Total  Time of Max      Inflow      Inflow     Balance
                                   Inflow   Inflow   Occurrence      Volume      Volume       Error
  Node                 Type           LPS      LPS  days hr:min    10^6 ltr    10^6 ltr     Percent
  -------------------------------------------------------------------------------------------------
  WS02001211           JUNCTION      7.35   391.91     0  03:17       0.207        9.91       0.407
  WS02001212           JUNCTION      0.00   396.59     0  03:16           0        9.87       0.241
  WS02001213           JUNCTION      0.00   400.57     0  03:16           0        9.85       0.292
  WS02003069           JUNCTION      0.32  1331.32     0  03:05     0.00902        17.7       0.198
  WS02003072           JUNCTION      0.00  1330.97     0  03:06           0        17.6       0.236
  WS02003073           JUNCTION      1.82  1332.92     0  03:06      0.0514        17.7       0.268
  WS02003060           JUNCTION     16.53  1331.23     0  03:05       0.466        17.7       0.190
  WS02003066           JUNCTION      0.00   938.87     0  03:04           0        7.46       0.064
  WS02003059           JUNCTION      0.00   405.58     0  03:17           0        9.82       0.406
  WS02003067           JUNCTION      0.00   938.43     0  03:04           0        7.47       0.132
  WS02004401           JUNCTION      0.00   938.94     0  03:02           0        7.73       0.306
  WS02004402           JUNCTION      0.00   939.03     0  03:03           0         7.7       0.285
  WS02004403           JUNCTION      0.00   939.15     0  03:03           0        7.68       0.257
  WS02004404           JUNCTION      0.16   939.47     0  03:03     0.00457        7.67       0.189
  WS02004406           JUNCTION      0.00   939.84     0  03:03           0        7.63       0.462
  WS02004409           JUNCTION      0.00   939.72     0  03:03           0        7.59       0.244
  WS02004410           JUNCTION      0.00   938.72     0  03:03           0        7.57       0.271
  WS02004411           JUNCTION      0.00   938.32     0  03:03           0        7.55       0.274
  WS02004412           JUNCTION      0.00   938.05     0  03:03           0        7.53       0.291
  WS02004413           JUNCTION      0.00   938.23     0  03:04           0        7.51       0.427
  WS02004405           JUNCTION      0.04   939.70     0  03:03     0.00107        7.65       0.287
  WS02006109           JUNCTION      1.23   914.73     0  03:02      0.0347        7.78       0.267
  WS02006110           JUNCTION      0.00   914.80     0  03:02           0        7.76       0.279
  WS02006111           JUNCTION      0.00   915.14     0  03:02           0        7.72       0.064
  WS02006112           JUNCTION     30.67   938.74     0  03:02      0.0853         7.8       0.381
  WS02006113           JUNCTION      0.00   914.86     0  03:02           0        7.73       0.153
  WS02006115           JUNCTION      0.00   938.77     0  03:02           0        7.77       0.301
  WS02006116           JUNCTION      0.00   938.86     0  03:02           0        7.75       0.288
  WS02006230           JUNCTION     10.28   506.62     0  03:33        0.29        5.36       0.303
  WS02006231           JUNCTION      0.00   496.55     0  03:32           0        5.08       0.241
  WS02006232           JUNCTION      0.00   496.65     0  03:33           0         5.1       0.376
  WS02006234           JUNCTION      0.00   496.60     0  03:32           0        5.11       0.175
  WS02006235           JUNCTION      0.00   496.25     0  03:32           0        5.22       0.262
  WS02006238           JUNCTION      0.00   306.10     0  03:32           0        1.68       0.501
  WS02006240           JUNCTION      0.00   305.88     0  03:32           0         1.6       1.017
  WS02006242           JUNCTION      0.00   305.95     0  03:32           0        1.58       1.175
  WS02006243           JUNCTION      0.00   305.91     0  03:32           0        1.57       0.736
  WS02006245           JUNCTION      0.00   305.93     0  03:32           0        1.58       0.876
  WS02006247           JUNCTION      0.00   305.86     0  03:32           0        1.59       0.586
  WS02006248           JUNCTION      0.00   305.90     0  03:32           0        1.59       0.241
  WS02006249           JUNCTION      0.00   447.08     0  03:29           0        1.72       0.801
  WS02006239           JUNCTION      0.00   305.98     0  03:32           0        1.64       0.762
  WS02006251           JUNCTION      0.08   427.96     0  03:29     0.00217        1.76       0.476
  WS02006252           JUNCTION      0.00   399.42     0  03:30           0        1.26       0.039
  WS02006253           JUNCTION      3.75   143.71     0  03:01      0.0103       0.496       0.851
  WS02006256           JUNCTION      0.00   983.00     0  00:00           0        10.3      -0.007
  WS02004138           JUNCTION      0.00   380.00     0  00:00           0        9.75       0.063
  WS02004139           JUNCTION      0.32   396.51     0  00:00     0.00905        9.75       0.464
  WS02004407           JUNCTION      0.00   939.96     0  03:03           0         7.6       0.112
  WS02006228           JUNCTION      0.00   913.36     0  03:02           0        7.76       0.218
  WS02006229           JUNCTION      0.00   918.98     0  03:01           0        7.77       0.194
  WS02006280           JUNCTION      0.00   680.08     0  03:02           0        2.43       0.008
  WS02006284           JUNCTION      0.10   678.94     0  03:02      0.0027        2.43       0.046
  WS02006287           JUNCTION      0.00   677.57     0  03:02           0        2.43       0.031
  WSF200               JUNCTION      0.00   939.02     0  03:04           0        7.46       0.059
  HS02004901           JUNCTION     37.63    37.63     0  03:01       0.103       0.103       1.742
  HS02004881           JUNCTION     14.26   140.54     0  03:01      0.0422       0.463       0.094
  HS02004876           JUNCTION     25.66   127.63     0  03:01      0.0814       0.422       0.130
  HS02004870           JUNCTION     26.26   103.59     0  03:01      0.0799        0.34       0.035
  HS02004862           JUNCTION     25.49    79.37     0  03:01      0.0888       0.261       0.068
  HS02004856           JUNCTION     19.64    55.42     0  03:01      0.0601       0.173       0.841
  HS02004852           JUNCTION      0.00    37.84     0  03:01           0       0.113       0.053
  HS02004848           JUNCTION     55.75    55.75     0  03:01       0.197       0.197       0.029
  HS02004842           JUNCTION      0.00    16.84     0  03:01           0       0.097      15.491
  HS02004837           JUNCTION     50.35    65.69     0  03:01       0.318       0.402       0.205
  HS02004830           JUNCTION      0.15    64.79     0  03:01     0.00423       0.392       0.316
  HS02004824           JUNCTION     65.57   128.45     0  03:01       0.251       0.642       0.085
  HS02004817           JUNCTION      0.60   124.46     0  03:01      0.0169       0.658       2.600
  HS02004807           JUNCTION     48.45   165.78     0  03:01       0.147       0.788       0.554
  HS02004802           JUNCTION      0.00   165.31     0  03:04           0       0.785       0.508
  HS02004799           JUNCTION     38.67   446.05     0  03:01       0.119        1.42       0.191
  HS02004792           JUNCTION    184.82   411.86     0  03:01        0.54         1.3       0.034
  HS02004788           JUNCTION     58.68   233.43     0  03:02       0.219       0.758       0.053
  HS02004785           JUNCTION      0.15   182.19     0  03:01     0.00423        0.54       0.093
  HS02004777           JUNCTION      0.03   185.01     0  03:01    0.000846       0.541       0.972
  HS02004770           JUNCTION    154.22   188.92     0  03:01       0.441       0.542       0.578
  HS02004480           JUNCTION      0.00   517.17     0  03:01           0        1.66       0.069
  HS02004479           JUNCTION      0.00    75.42     0  03:02           0       0.258       0.286
  HS02004478           JUNCTION      0.00   676.98     0  03:02           0        2.43       0.011
  YS02001745           JUNCTION    438.14   438.14     0  03:01        3.01        3.02       0.373
  YS02001748           JUNCTION      0.04   568.78     0  02:32     0.00127        3.01       0.724
  YS02001751           JUNCTION      0.01   442.99     0  03:01     0.00031        2.98       0.795
  YS02001754           JUNCTION      0.26   443.11     0  03:01     0.00733        2.96       0.858
  YS02001762           JUNCTION      0.00   313.87     0  02:43           0        1.95       1.105
  YS02001765           JUNCTION      0.00   313.96     0  02:43           0        1.96       1.273
  YS02001767           JUNCTION      0.54   313.91     0  02:43      0.0151        1.98       1.848
  YS02001770           JUNCTION    552.50   699.35     0  03:16        3.37        4.14       0.783
  YS02001774           JUNCTION      0.00   699.38     0  03:16           0        2.91       0.877
  YS02001779           JUNCTION      0.01   699.40     0  03:16    0.000141        2.89       0.540
  YS02001882           JUNCTION      0.00    27.85     0  02:37           0      0.0142      17.624
  YS02001884           JUNCTION      0.00    58.23     0  02:37           0        0.05      13.919
  YS02001759           JUNCTION    536.49   621.04     0  02:43        3.11        4.26       0.543
  YS02001887           JUNCTION    679.97   680.00     0  03:01        3.56        3.59       0.238
  YS02001890           JUNCTION      0.00   681.00     0  03:01           0        3.55       0.263
  YS02001898           JUNCTION      0.00   517.24     0  03:01           0        3.45       0.084
  YS02001901           JUNCTION      0.00   517.33     0  03:01           0        3.45       0.204
  YS02001904           JUNCTION      0.00   517.35     0  03:01           0        3.44       0.178
  YS02001907           JUNCTION      0.00  1098.69     0  03:01           0        7.77       0.321
  YS02001910           JUNCTION      0.00   582.58     0  03:00           0        4.34       0.275
  YS02001915           JUNCTION    389.26   582.30     0  03:01        2.52        4.37       0.134
  YS02001918           JUNCTION      0.00   252.72     0  02:47           0        1.87       0.078
  YS02001619           JUNCTION    380.66   380.66     0  03:01        2.51        2.51       0.489
  YS02001629           JUNCTION      0.00   196.26     0  02:39           0        1.59       1.856
  YS02001641           JUNCTION      0.00   413.67     0  02:39           0        4.45       0.477
  YS02001644           JUNCTION    416.76  1526.45     0  03:01         2.9        12.4       0.220
  YS02001652           JUNCTION      0.00   501.74     0  03:01           0        2.62       0.906
  YS02001655           JUNCTION      0.15   501.86     0  03:01     0.00434        2.65       0.939
  YS02001920           JUNCTION      2.87   252.89     0  02:47      0.0809        1.86       0.154
  YS02001923           JUNCTION      0.04   232.70     0  02:47     0.00106        1.77       0.053
  YS02001926           JUNCTION      0.05   204.08     0  02:47     0.00147        1.76       0.191
  YS02001929           JUNCTION    189.18   189.18     0  03:01        1.75        1.75       0.037
  YS02001658           JUNCTION      0.00   574.06     0  02:29           0        2.67       0.829
  YS02001661           JUNCTION      0.00   643.12     0  02:46           0        2.88      -0.021
  YS02001664           JUNCTION    492.63   492.63     0  03:01        2.67        2.88       0.206
  YS02001622           JUNCTION      0.00   381.54     0  03:01           0         2.5       1.296
  YS02001633           JUNCTION    423.29   423.29     0  03:01        2.99        4.52       0.722
  YS02001649           JUNCTION      0.00   866.09     0  02:40           0        7.03       0.533
  YS02001757           JUNCTION      0.00  1677.72     0  02:40           0        8.59       1.081
  YS02001895           JUNCTION      0.00   517.30     0  03:00           0        3.45       0.145
  YS02001625           JUNCTION      0.00   409.33     0  03:01           0        2.47       1.598
  YS02163301           JUNCTION      0.00   207.24     0  02:33           0        1.57       1.578
  YS02163601           JUNCTION      0.11   413.23     0  02:39      0.0031        4.48       0.679
  YS02164001           JUNCTION      0.00   413.46     0  02:39           0        4.46       0.470
  YS02001647           JUNCTION      0.00   807.75     0  03:18           0        6.35       0.450
  YSB1154              JUNCTION     44.76    44.76     0  03:01       0.144       0.144       1.018
  YSB6556              JUNCTION      0.00    43.29     0  03:01           0       0.145       0.869
  YSB1174              JUNCTION     38.10    38.10     0  03:01       0.106       0.107       1.223
  YSB1171              JUNCTION      0.00    76.94     0  03:01           0       0.257       2.526
  YS02006553           JUNCTION      0.00   710.48     0  03:46           0        6.69       0.236
  YS02006561           JUNCTION      0.00   983.77     0  02:59           0        9.92       0.009
  YS02006556           JUNCTION      0.00   710.58     0  03:46           0        6.69       0.171
  YS02006558           JUNCTION    587.14   984.92     0  03:00        3.28        9.95       0.049
  YS02001783           JUNCTION      0.00   983.92     0  02:59           0        9.92       0.023
  YS02001784           JUNCTION      1.06   984.98     0  03:00      0.0299        9.94       0.035
  YS02001786           JUNCTION      0.06   985.05     0  03:01     0.00159        9.94       0.035
  YS02001788           JUNCTION      0.07   984.90     0  03:00       0.002        9.94       0.021
  YS02001790           JUNCTION      0.15   985.58     0  03:01     0.00437        9.94       0.011
  YS02001791           JUNCTION      0.00   985.33     0  03:01           0        9.94       0.012
  YS02001793           JUNCTION      0.00   985.69     0  03:01           0        9.95      -0.002
  WSC                  OUTFALL       0.00  1333.16     0  03:07           0        17.6       0.000
  JK-storage           STORAGE       0.00  1071.88     0  02:05           0        10.1     -10.764
  CC-storage           STORAGE       0.00  1676.59     0  02:40           0        5.32       1.227
  XR-storage           STORAGE    1024.87  1024.87     0  03:01        12.7        13.3      -0.001
  
  
  **********************
  Node Surcharge Summary
  **********************
  
  Surcharging occurs when water rises above the top of the highest conduit.
  ---------------------------------------------------------------------
                                               Max. Height   Min. Depth
                                   Hours       Above Crown    Below Rim
  Node                 Type      Surcharged         Meters       Meters
  ---------------------------------------------------------------------
  WS02004401           JUNCTION        0.37          0.231        1.429
  WS02004402           JUNCTION        0.39          0.220        1.520
  WS02004403           JUNCTION        0.40          0.198        1.832
  WS02004404           JUNCTION        0.62          0.246        2.534
  WS02004406           JUNCTION        0.48          0.163        2.287
  WS02004413           JUNCTION        0.17          0.023        2.177
  WS02004405           JUNCTION        0.56          0.214        2.586
  WS02006109           JUNCTION        2.22          0.828        0.992
  WS02006110           JUNCTION        1.04          0.533        1.317
  WS02006111           JUNCTION        0.13          0.073        1.797
  WS02006112           JUNCTION        1.36          0.556        1.124
  WS02006113           JUNCTION        0.15          0.121        1.809
  WS02006115           JUNCTION        0.29          0.205        2.045
  WS02006116           JUNCTION        0.30          0.197        2.093
  WS02006230           JUNCTION        0.65          0.793        0.777
  WS02006231           JUNCTION        0.75          0.806        0.724
  WS02006232           JUNCTION        1.98          0.918        0.562
  WS02006234           JUNCTION        0.98          0.801        0.439
  WS02006235           JUNCTION        1.38          0.825        0.465
  WS02006238           JUNCTION        1.49          0.833        0.597
  WS02006240           JUNCTION        0.71          0.689        0.701
  WS02006242           JUNCTION        0.74          0.692        0.128
  WS02006243           JUNCTION        0.55          0.563        0.207
  WS02006245           JUNCTION        0.49          0.504        0.346
  WS02006247           JUNCTION        0.48          0.486        0.274
  WS02006248           JUNCTION        0.42          0.380        0.000
  WS02006249           JUNCTION        0.42          0.390        0.000
  WS02006239           JUNCTION        0.87          0.745        0.545
  WS02006251           JUNCTION        0.23          0.381        0.799
  WS02006252           JUNCTION        0.35          0.570        0.530
  WS02006253           JUNCTION        0.27          0.399        2.081
  WS02006256           JUNCTION        6.67          2.050        0.000
  WS02006228           JUNCTION        2.19          0.993        1.207
  YS02001748           JUNCTION        5.22          0.533        0.657
  YS02001751           JUNCTION        5.38          0.590        0.610
  YS02001754           JUNCTION        5.58          0.799        0.351
  YS02001762           JUNCTION        5.75          1.048        0.102
  YS02001765           JUNCTION        5.72          0.995        0.105
  YS02001767           JUNCTION        5.69          0.952        0.078
  YS02001770           JUNCTION        5.68          0.909        0.011
  YS02001774           JUNCTION        5.74          0.990        0.060
  YS02001779           JUNCTION        5.56          0.680        0.000
  YS02001882           JUNCTION        1.11          0.638        0.192
  YS02001884           JUNCTION        1.14          0.673        0.197
  YS02001759           JUNCTION        5.78          1.087        0.123
  YS02001887           JUNCTION        1.19          0.760        0.190
  YS02001890           JUNCTION        1.22          0.760        0.000
  YS02001898           JUNCTION        1.08          0.531        0.209
  YS02001901           JUNCTION        1.16          0.677        0.193
  YS02001904           JUNCTION        1.15          0.637        0.213
  YS02001907           JUNCTION        1.88          0.950        0.000
  YS02001910           JUNCTION        1.26          0.792        0.308
  YS02001915           JUNCTION        1.10          0.605        0.395
  YS02001918           JUNCTION        0.93          0.298        0.512
  YS02001619           JUNCTION        5.38          0.498        0.112
  YS02001629           JUNCTION        5.39          0.470        0.000
  YS02001641           JUNCTION        5.73          0.935        0.165
  YS02001644           JUNCTION        5.73          0.920        0.000
  YS02001652           JUNCTION        5.61          1.006        0.124
  YS02001655           JUNCTION        5.40          1.001        0.199
  YS02001920           JUNCTION        0.96          0.378        0.762
  YS02001658           JUNCTION        5.25          0.918        0.382
  YS02001661           JUNCTION        0.10          0.799        0.591
  YS02001622           JUNCTION        5.41          0.511        0.109
  YS02001633           JUNCTION        5.71          0.928        0.132
  YS02001649           JUNCTION        5.76          1.050        0.000
  YS02001757           JUNCTION        5.86          1.193        0.017
  YS02001895           JUNCTION        1.09          0.566        0.184
  YS02001625           JUNCTION        5.64          0.780        0.000
  YS02163301           JUNCTION        5.69          0.884        0.146
  YS02163601           JUNCTION        5.75          0.989        0.091
  YS02164001           JUNCTION        5.72          0.916        0.184
  YS02001647           JUNCTION        5.62          0.803        0.097
  YS02006553           JUNCTION        2.00          0.972        0.218
  YS02006561           JUNCTION        0.99          0.283        0.867
  YS02006556           JUNCTION        1.47          0.894        0.456
  YS02006558           JUNCTION        1.43          0.881        0.519
  YS02001783           JUNCTION        1.27          0.923        0.677
  YS02001784           JUNCTION        1.25          0.741        0.749
  YS02001786           JUNCTION        1.20          0.628        0.802
  YS02001788           JUNCTION        1.15          0.607        0.873
  YS02001790           JUNCTION        2.05          0.914        0.243
  YS02001791           JUNCTION        2.14          1.920        0.000
  YS02001793           JUNCTION        2.39          1.153        1.447
  
  
  *********************
  Node Flooding Summary
  *********************
  
  Flooding refers to all water that overflows a node, whether it ponds or not.
  --------------------------------------------------------------------------
                                                             Total   Maximum
                                 Maximum   Time of Max       Flood    Ponded
                        Hours       Rate    Occurrence      Volume     Depth
  Node                 Flooded       LPS   days hr:min    10^6 ltr    Meters
  --------------------------------------------------------------------------
  WS02006248              0.08     15.03      0  03:03       0.002     0.000
  WS02006249              0.25    227.60      0  03:00       0.116     0.000
  WS02006256              3.63    978.40      0  00:00       6.649     0.000
  YS02001779              3.23    699.39      0  03:16       2.868     0.000
  YS02001890              0.34    164.30      0  03:01       0.085     0.000
  YS02001907              0.80    703.76      0  03:01       1.067     0.000
  YS02001629              0.01     16.83      0  02:32       0.000     0.000
  YS02001644              4.99   1526.20      0  03:01      11.052     0.000
  YS02001649              0.01     27.97      0  02:49       0.000     0.000
  YS02001625              1.40    408.98      0  03:01       0.855     0.000
  YS02001791              0.01    159.45      0  02:34       0.000     0.000
  JK-storage              0.86    768.43      0  02:40       1.035     0.000
  XR-storage              3.55    644.85      0  03:01       2.786     0.000
  
  
  **********************
  Storage Volume Summary
  **********************
  
  --------------------------------------------------------------------------------------------------
                         Average     Avg  Evap Exfil       Maximum     Max    Time of Max    Maximum
                          Volume    Pcnt  Pcnt  Pcnt        Volume    Pcnt     Occurrence    Outflow
  Storage Unit           1000 m3    Full  Loss  Loss       1000 m3    Full    days hr:min        LPS
  --------------------------------------------------------------------------------------------------
  JK-storage               0.145      50     0     0         0.291     100       0  02:35     983.00
  CC-storage               3.156      20     0     0         4.046      26       0  03:16     399.42
  XR-storage               0.794      86     0     0         0.926     100       0  02:53     380.00
  
  
  ***********************
  Outfall Loading Summary
  ***********************
  
  ---------------------------------------------------------------------------------------------------------------------------------
                         Flow       Avg       Max       Total         Total         Total         Total         Total         Total
                         Freq      Flow      Flow      Volume           COD            SS            TN            TP         NH4-N
  Outfall Node           Pcnt       LPS       LPS    10^6 ltr            kg            kg            kg            kg            kg
  ---------------------------------------------------------------------------------------------------------------------------------
  WSC                   99.98    698.27   1333.16      17.604      2190.657      3777.518       143.399        16.954        86.955
  ---------------------------------------------------------------------------------------------------------------------------------
  System                99.98    698.27   1333.16      17.604      2190.657      3777.518       143.399        16.954        86.955
  
  
  ********************
  Link Flow Summary
  ********************
  
  -----------------------------------------------------------------------------
                                 Maximum  Time of Max   Maximum    Max/    Max/
                                  |Flow|   Occurrence   |Veloc|    Full    Full
  Link                 Type          LPS  days hr:min     m/sec    Flow   Depth
  -----------------------------------------------------------------------------
  WS02003066WSF200     CONDUIT    939.02     0  03:04      3.00    0.16    0.32
  WS02006287WS02006284 CONDUIT    678.85     0  03:02      2.38    0.31    0.39
  WS02006284WS02006280 CONDUIT    680.08     0  03:02      2.62    0.28    0.37
  WS02006280WS02006229 CONDUIT    680.15     0  03:02      3.90    0.15    0.50
  WS02006229WS02006228 CONDUIT    913.36     0  03:02      1.82    3.03    1.00
  WS02006256WS02006235 CONDUIT    288.60     0  00:00      4.23    3.05    1.00
  WS02006253WS02006251 CONDUIT    145.18     0  03:01      0.64    0.44    1.00
  WS02006252WS02006251 CONDUIT    397.95     0  03:30      3.17    1.46    1.00
  WS02006251WS02006249 CONDUIT    447.08     0  03:29      1.16    1.29    1.00
  WS02006249WS02006248 CONDUIT    305.90     0  03:32      1.00    1.68    1.00
  WS02006248WS02006247 CONDUIT    305.86     0  03:32      0.97    0.67    1.00
  WS02006247WS02006245 CONDUIT    305.93     0  03:32      0.94    2.43    1.00
  WS02006245WS02006243 CONDUIT    305.91     0  03:32      1.05    0.90    1.00
  WS02006243WS02006242 CONDUIT    305.95     0  03:32      0.90    0.65    1.00
  WS02006242WS02006240 CONDUIT    305.88     0  03:32      0.90    1.21    1.00
  WS02006240WS02006239 CONDUIT    305.98     0  03:32      0.93    0.96    1.00
  WS02006239WS02006238 CONDUIT    306.10     0  03:32      0.88    0.98    1.00
  WS02006238WS02006235 CONDUIT    306.11     0  03:32      1.46    0.68    1.00
  WS02006235WS02006234 CONDUIT    496.60     0  03:32      1.29    5.24    1.00
  WS02006234WS02006232 CONDUIT    496.65     0  03:33      1.39    1.00    1.00
  WS02006232WS02006231 CONDUIT    496.55     0  03:32      1.29    1.04    1.00
  WS02006231WS02006230 CONDUIT    496.34     0  03:33      1.35    7.53    1.00
  WS02006230WS02006229 CONDUIT    506.93     0  03:33      1.32   11.28    1.00
  WS02006228WS02006109 CONDUIT    913.50     0  03:02      1.82    3.99    1.00
  WS02006116WS02004401 CONDUIT    938.94     0  03:02      1.20    1.29    1.00
  WS02006115WS02006116 CONDUIT    938.86     0  03:02      1.20    1.20    1.00
  WS02006113WS02006111 CONDUIT    915.14     0  03:02      2.60    1.10    1.00
  WS02006112WS02006115 CONDUIT    938.77     0  03:02      1.20    0.55    1.00
  WS02006111WS02006112 CONDUIT    915.51     0  03:03      1.82    0.44    1.00
  WS02006110WS02006113 CONDUIT    914.86     0  03:02      1.82    0.83    1.00
  WS02006109WS02006110 CONDUIT    914.80     0  03:02      1.82    1.76    1.00
  WS02004411WS02004412 CONDUIT    938.05     0  03:03      1.24    1.33    0.92
  WS02004401WS02004402 CONDUIT    939.03     0  03:03      1.20    1.13    1.00
  WS02004413WS02003067 CONDUIT    938.43     0  03:04      1.55    0.40    0.72
  WS02004412WS02004413 CONDUIT    938.23     0  03:04      1.22    0.63    0.95
  WS02004410WS02004411 CONDUIT    938.32     0  03:03      1.23    1.28    0.94
  WS02004409WS02004410 CONDUIT    938.72     0  03:03      1.22    1.21    0.95
  WS02004407WS02004409 CONDUIT    939.72     0  03:03      1.68    0.33    0.68
  WS02004406WS02004407 CONDUIT    939.96     0  03:03      1.60    0.42    0.70
  WS02004405WS02004406 CONDUIT    939.84     0  03:03      1.20    1.85    1.00
  WS02004404WS02004405 CONDUIT    939.66     0  03:03      1.20    9.21    1.00
  WS02004403WS02004404 CONDUIT    939.31     0  03:03      1.20    0.68    1.00
  WS02004402WS02004403 CONDUIT    939.15     0  03:03      1.20    1.35    1.00
  WS02004139WS02001211 CONDUIT    384.56     0  03:17      0.90    0.49    0.64
  WS02004138WS02004139 CONDUIT    396.19     0  00:00      3.65    0.08    0.47
  WS02003067WS02003066 CONDUIT    938.87     0  03:04      1.65    0.30    0.50
  WS02001213WS02003059 CONDUIT    405.58     0  03:17      0.88    0.67    0.87
  WS02001212WS02001213 CONDUIT    400.57     0  03:16      1.32    0.62    0.56
  WS02001211WS02001212 CONDUIT    396.59     0  03:16      0.78    0.30    0.71
  WS02003072WS02003073 CONDUIT   1331.09     0  03:06      1.96    2.87    0.58
  WS02003069WS02003072 CONDUIT   1330.97     0  03:06      1.82    0.64    0.62
  WS02003060WS02003069 CONDUIT   1331.00     0  03:05      2.03    0.52    0.56
  WS02003059WS02003060 CONDUIT    412.13     0  03:16      0.95    0.27    0.77
  HS02004901HS02004770 CONDUIT     37.23     0  03:01      0.10    0.14    0.53
  HS02004876HS02004881 CONDUIT    127.62     0  03:01      1.21    1.36    0.15
  HS02004870HS02004876 CONDUIT    103.09     0  03:01      0.82    0.07    0.18
  HS02004842HS02004848 CONDUIT     16.84     0  03:01      0.07    0.01    0.33
  HS02004837HS02004842 CONDUIT     17.91     0  03:03      0.42    0.01    0.35
  HS02004830HS02004837 CONDUIT     64.64     0  03:01      0.67    0.06    0.14
  HS02004824HS02004830 CONDUIT     64.12     0  03:02      0.62    0.08    0.16
  HS02004817HS02004824 CONDUIT    123.86     0  03:01      0.31    0.06    0.58
  HS02004770HS02004777 CONDUIT    184.98     0  03:01      0.49    0.34    0.54
  HS02004799HS02004480 CONDUIT    444.30     0  03:01      1.07    0.56    0.60
  HS02004792HS02004799 CONDUIT    408.43     0  03:01      1.20    0.25    0.49
  HS02004788HS02004792 CONDUIT    232.94     0  03:02      1.28    0.15    0.26
  HS02004785HS02004788 CONDUIT    181.77     0  03:02      0.91    1.37    0.29
  HS02004777HS02004785 CONDUIT    182.04     0  03:01      0.57    0.22    0.45
  HS02004480HS02004478 CONDUIT    517.29     0  03:01      1.55    2.18    0.48
  HS02004479HS02004480 CONDUIT     77.29     0  03:02      0.30    0.07    0.57
  HS02004862HS02004870 CONDUIT     79.02     0  03:01      0.80    0.09    0.14
  HS02004848HS02004852 CONDUIT     37.84     0  03:01      0.53    0.04    0.10
  HS02004856HS02004862 CONDUIT     54.76     0  03:01      0.59    0.05    0.13
  HS02004852HS02004856 CONDUIT     37.75     0  03:02      0.34    0.04    0.16
  HS02004802HS02004478 CONDUIT    170.15     0  03:04      0.54    0.15    0.48
  HS02004478WS02006287 CONDUIT    677.57     0  03:02      2.11    0.19    0.36
  HS02004817HS02004807 CONDUIT    128.12     0  03:04      0.25    0.08    0.75
  HS02004807HS02004802 CONDUIT    165.31     0  03:04      0.46    0.32    0.53
  YS02001759YS02001757 CONDUIT    621.30     0  02:43      0.79    0.44    1.00
  YS02001762YS02001759 CONDUIT    313.06     0  02:43      0.40    0.36    1.00
  YS02001765YS02001762 CONDUIT    313.87     0  02:43      0.40    0.29    1.00
  YS02001770YS02001767 CONDUIT    313.37     0  02:43      0.40    1.24    1.00
  YS02001774YS02001770 CONDUIT    699.38     0  03:16      0.89    0.45    1.00
  YS02001779YS02001774 CONDUIT    699.39     0  03:16      0.89    0.35    1.00
  YS02001649YS02001757 CONDUIT    866.29     0  02:40      1.10    0.53    1.00
  YS02001767YS02001765 CONDUIT    313.96     0  02:43      0.40    0.39    1.00
  YS02006561YS02001783 CONDUIT    983.92     0  02:59      2.14    0.51    1.00
  YS02001783YS02001784 CONDUIT    983.92     0  03:00      1.96    1.36    1.00
  YS02001784YS02001785 CONDUIT    984.99     0  03:01      1.96    2.29    1.00
  YS02001788YS02001790 CONDUIT    985.43     0  03:01      2.44    0.73    1.00
  YS02001790YS02001791 CONDUIT    985.33     0  03:01      2.90    1.07    1.00
  YS02001791YS02001793 CONDUIT    985.69     0  03:01      5.75    0.42    1.00
  YS02001910YS02001907 CONDUIT    582.20     0  03:01      0.74    0.33    1.00
  YS02001786YS02001788 CONDUIT    984.83     0  03:00      2.31    1.90    1.00
  YS02001915YS02001910 CONDUIT    582.58     0  03:00      0.74    0.29    1.00
  YS02001918YS02001915 CONDUIT    253.24     0  02:47      0.44    0.14    1.00
  YS02001923YS02001920 CONDUIT    250.02     0  02:47      0.75    0.11    1.00
  YS02001926YS02001923 CONDUIT    232.66     0  02:47      0.86    0.33    0.94
  YS02001929YS02001926 CONDUIT    204.02     0  02:47      0.92    0.10    0.84
  YS02001920YS02001918 CONDUIT    252.72     0  02:47      0.72    0.24    1.00
  YS02001629YS02163301 CONDUIT    207.24     0  02:33      0.26    0.26    1.00
  YS02001619YS02001622 CONDUIT    381.54     0  03:01      0.59    0.56    1.00
  YS02001622YS02001625 CONDUIT    381.85     0  03:01      0.49    0.20    1.00
  YS02001625YS02001629 CONDUIT    196.26     0  02:39      0.25    0.09    1.00
  YS02163301YS02001633 CONDUIT    210.93     0  02:33      0.27    0.20    1.00
  YS02163601YS02164001 CONDUIT    413.46     0  02:39      0.53    0.37    1.00
  YS02164001YS02001641 CONDUIT    413.67     0  02:39      0.53    0.56    1.00
  YS02001641YS02001644 CONDUIT    413.76     0  02:39      0.53    1.34    1.00
  YS02001647YS02001649 CONDUIT    807.75     0  03:18      1.03    0.43    1.00
  YS02006553YS02006556 CONDUIT    710.58     0  03:46      0.90    0.61    1.00
  YS02006556YS02006558 CONDUIT    710.76     0  03:46      0.90    0.56    1.00
  YSB6556YSB1171       CONDUIT     42.82     0  03:02      0.13    0.04    0.82
  YS02001907YS02006553 CONDUIT    710.48     0  03:46      0.79    0.84    1.00
  YS02006558YS02006561 CONDUIT    983.77     0  02:59      3.48    2.17    1.00
  YS02001633YS02163601 CONDUIT    413.12     0  02:39      0.53    0.43    1.00
  YS02001644YS02001647 CONDUIT    807.81     0  03:18      1.03    0.47    1.00
  YS02001745YS02001748 CONDUIT    568.73     0  02:32      1.46    0.22    0.98
  YS02001748YS02001751 CONDUIT    442.97     0  03:01      1.03    0.22    1.00
  YS02001751YS02001754 CONDUIT    442.85     0  03:01      0.88    0.21    1.00
  YS02001754YS02001757 CONDUIT    442.85     0  03:01      0.56    0.18    1.00
  YS02001882YS02001884 CONDUIT     27.85     0  02:37      0.12    0.03    1.00
  YS02001884YS02001887 CONDUIT     58.23     0  02:37      0.08    0.08    1.00
  YS02001890YS02001895 CONDUIT    517.30     0  03:00      0.66    0.24    1.00
  YS02001895YS02001898 CONDUIT    517.24     0  03:01      0.66    0.90    1.00
  YS02001898YS02001901 CONDUIT    517.33     0  03:01      0.66    0.33    1.00
  YS02001901YS02001904 CONDUIT    517.35     0  03:01      0.66    0.80    1.00
  YS02001904YS02001907 CONDUIT    517.42     0  02:57      0.66    0.18    1.00
  YS02001887YS02001890 CONDUIT    681.00     0  03:01      0.87    1.17    1.00
  YS02001652YS02001649 CONDUIT    502.27     0  03:01      0.64    0.25    1.00
  YS02001655YS02001652 CONDUIT    501.74     0  03:01      0.94    0.24    1.00
  YS02001658YS02001655 CONDUIT    501.70     0  03:01      1.18    0.21    1.00
  YS02001661YS02001658 CONDUIT    574.06     0  02:29      1.52    0.23    1.00
  YS02001664YS02001661 CONDUIT    643.12     0  02:46      1.43    0.20    0.77
  YSB1154YSB6556       CONDUIT     43.29     0  03:01      0.18    0.08    0.73
  YSB1174YSB1171       CONDUIT     36.64     0  03:01      0.11    0.06    0.85
  YSB1171HS02004479    CONDUIT     75.42     0  03:02      0.54    0.05    0.68
  HS02004881HS02006253 CONDUIT    140.46     0  03:01      2.33    0.03    0.54
  YS02001793JiankangQianchi CONDUIT   1071.88     0  02:05     16.50    0.09    1.00
  YS02001757CaochengTiaoxuchi CONDUIT   1676.59     0  02:40      2.17    0.74    1.00
  WSF200WS02003060     CONDUIT    939.30     0  03:04      1.93    0.21    0.45
  1                    CONDUIT   1333.16     0  03:07      3.59    0.46    0.48
  CC-Pump-1            PUMP       200.00     0  06:50              1.00
  CC-Pump-2            PUMP       199.71     0  03:30              1.00
  JK-Pump-1            PUMP       300.00     0  00:00              1.00
  JK-Pump-2            PUMP       683.00     0  00:00              1.00
  XR-Pump-1            PUMP        95.00     0  00:00              1.00
  XR-Pump-2            PUMP        95.00     0  00:00              1.00
  XR-Pump-3            PUMP        95.00     0  00:00              1.00
  XR-Pump-4            PUMP        95.00     0  00:00              1.00
  
  
  ***************************
  Flow Classification Summary
  ***************************
  
  -------------------------------------------------------------------------------------
                      Adjusted    ---------- Fraction of Time in Flow Class ---------- 
                       /Actual         Up    Down  Sub   Sup   Up    Down  Norm  Inlet 
  Conduit               Length    Dry  Dry   Dry   Crit  Crit  Crit  Crit  Ltd   Ctrl  
  -------------------------------------------------------------------------------------
  WS02003066WSF200        1.00   0.01  0.07  0.00  0.00  0.92  0.00  0.00  0.56  0.00
  WS02006287WS02006284    1.00   0.03  0.02  0.00  0.55  0.40  0.00  0.00  0.65  0.00
  WS02006284WS02006280    1.00   0.04  0.00  0.00  0.00  0.00  0.00  0.96  0.00  0.00
  WS02006280WS02006229    1.00   0.04  0.00  0.00  0.01  0.03  0.00  0.92  0.00  0.00
  WS02006229WS02006228    1.00   0.00  0.00  0.00  1.00  0.00  0.00  0.00  0.00  0.00
  WS02006256WS02006235    1.00   0.00  0.00  0.00  1.00  0.00  0.00  0.00  0.00  0.00
  WS02006253WS02006251    1.00   0.02  0.02  0.00  0.95  0.00  0.01  0.00  0.00  0.00
  WS02006252WS02006251    1.00   0.21  0.00  0.00  0.06  0.00  0.73  0.00  0.00  0.00
  WS02006251WS02006249    1.00   0.00  0.00  0.00  1.00  0.00  0.00  0.00  0.43  0.00
  WS02006249WS02006248    1.00   0.00  0.01  0.00  0.80  0.00  0.19  0.00  0.00  0.00
  WS02006248WS02006247    1.00   0.01  0.00  0.00  0.98  0.00  0.00  0.02  0.24  0.00
  WS02006247WS02006245    1.00   0.01  0.00  0.00  0.94  0.00  0.00  0.05  0.00  0.00
  WS02006245WS02006243    1.00   0.00  0.00  0.00  0.89  0.00  0.00  0.11  0.01  0.00
  WS02006243WS02006242    1.00   0.00  0.00  0.00  1.00  0.00  0.00  0.00  0.35  0.00
  WS02006242WS02006240    1.00   0.00  0.00  0.00  0.99  0.00  0.00  0.00  0.00  0.00
  WS02006240WS02006239    1.00   0.00  0.00  0.00  0.91  0.00  0.00  0.09  0.03  0.00
  WS02006239WS02006238    1.00   0.00  0.00  0.00  1.00  0.00  0.00  0.00  0.15  0.00
  WS02006238WS02006235    1.00   0.00  0.00  0.00  1.00  0.00  0.00  0.00  0.00  0.00
  WS02006235WS02006234    1.00   0.00  0.00  0.00  0.94  0.00  0.06  0.00  0.00  0.00
  WS02006234WS02006232    1.00   0.00  0.00  0.00  1.00  0.00  0.00  0.00  0.11  0.00
  WS02006232WS02006231    1.00   0.00  0.00  0.00  1.00  0.00  0.00  0.00  0.00  0.00
  WS02006231WS02006230    1.00   0.00  0.00  0.00  0.57  0.00  0.43  0.00  0.00  0.00
  WS02006230WS02006229    1.00   0.00  0.00  0.00  1.00  0.00  0.00  0.00  0.01  0.00
  WS02006228WS02006109    1.00   0.00  0.00  0.00  1.00  0.00  0.00  0.00  0.00  0.00
  WS02006116WS02004401    1.00   0.01  0.00  0.00  0.99  0.00  0.00  0.00  0.01  0.00
  WS02006115WS02006116    1.00   0.01  0.00  0.00  0.97  0.00  0.00  0.02  0.01  0.00
  WS02006113WS02006111    1.00   0.01  0.00  0.00  0.04  0.95  0.00  0.00  0.19  0.00
  WS02006112WS02006115    1.00   0.01  0.00  0.00  0.99  0.00  0.00  0.00  0.00  0.00
  WS02006111WS02006112    1.00   0.01  0.00  0.00  0.99  0.00  0.00  0.00  0.91  0.00
  WS02006110WS02006113    1.00   0.00  0.00  0.00  0.99  0.00  0.00  0.00  0.00  0.00
  WS02006109WS02006110    1.00   0.00  0.00  0.00  0.99  0.00  0.00  0.00  0.00  0.00
  WS02004411WS02004412    1.00   0.06  0.00  0.00  0.94  0.00  0.00  0.00  0.00  0.00
  WS02004401WS02004402    1.00   0.01  0.00  0.00  0.99  0.00  0.00  0.00  0.01  0.00
  WS02004413WS02003067    1.00   0.07  0.01  0.00  0.00  0.00  0.92  0.00  0.00  0.00
  WS02004412WS02004413    1.00   0.07  0.00  0.00  0.93  0.00  0.00  0.00  0.00  0.00
  WS02004410WS02004411    1.00   0.06  0.00  0.00  0.94  0.00  0.00  0.00  0.00  0.00
  WS02004409WS02004410    1.00   0.06  0.00  0.00  0.94  0.00  0.00  0.00  0.00  0.00
  WS02004407WS02004409    1.00   0.06  0.00  0.00  0.93  0.01  0.00  0.00  0.80  0.00
  WS02004406WS02004407    1.00   0.00  0.06  0.00  0.94  0.00  0.00  0.00  0.00  0.00
  WS02004405WS02004406    1.00   0.00  0.00  0.00  1.00  0.00  0.00  0.00  0.02  0.00
  WS02004404WS02004405    1.00   0.00  0.00  0.00  1.00  0.00  0.00  0.00  0.00  0.00
  WS02004403WS02004404    1.00   0.00  0.01  0.00  0.99  0.00  0.00  0.00  0.02  0.00
  WS02004402WS02004403    1.00   0.01  0.00  0.00  0.99  0.00  0.00  0.00  0.00  0.00
  WS02004139WS02001211    1.00   0.00  0.00  0.00  1.00  0.00  0.00  0.00  0.00  0.00
  WS02004138WS02004139    1.00   0.00  0.00  0.00  1.00  0.00  0.00  0.00  1.00  0.00
  WS02003067WS02003066    1.00   0.08  0.00  0.00  0.92  0.00  0.00  0.00  0.00  0.00
  WS02001213WS02003059    1.00   0.00  0.00  0.00  1.00  0.00  0.00  0.00  0.00  0.00
  WS02001212WS02001213    1.00   0.00  0.00  0.00  0.88  0.00  0.12  0.00  0.00  0.00
  WS02001211WS02001212    1.00   0.00  0.00  0.00  1.00  0.00  0.00  0.00  0.00  0.00
  WS02003072WS02003073    1.00   0.00  0.00  0.00  0.00  0.00  0.00  1.00  0.00  0.00
  WS02003069WS02003072    1.00   0.00  0.00  0.00  1.00  0.00  0.00  0.00  0.12  0.00
  WS02003060WS02003069    1.00   0.00  0.00  0.00  0.99  0.01  0.00  0.00  0.09  0.00
  WS02003059WS02003060    1.00   0.00  0.00  0.00  1.00  0.00  0.00  0.00  0.00  0.00
  HS02004901HS02004770    1.00   0.04  0.00  0.00  0.96  0.00  0.00  0.00  0.00  0.00
  HS02004876HS02004881    1.00   0.01  0.00  0.00  0.89  0.10  0.00  0.00  0.00  0.00
  HS02004870HS02004876    1.00   0.00  0.00  0.00  0.99  0.00  0.00  0.00  0.95  0.00
  HS02004842HS02004848    1.00   0.00  0.04  0.00  0.96  0.00  0.00  0.00  0.54  0.00
  HS02004837HS02004842    1.00   0.00  0.00  0.00  1.00  0.00  0.00  0.00  0.11  0.00
  HS02004830HS02004837    1.00   0.00  0.00  0.00  1.00  0.00  0.00  0.00  0.99  0.00
  HS02004824HS02004830    1.00   0.00  0.00  0.00  1.00  0.00  0.00  0.00  0.01  0.00
  HS02004817HS02004824    1.00   0.00  0.00  0.00  1.00  0.00  0.00  0.00  0.97  0.00
  HS02004770HS02004777    1.00   0.00  0.04  0.00  0.96  0.00  0.00  0.00  0.03  0.00
  HS02004799HS02004480    1.00   0.00  0.01  0.00  0.95  0.00  0.04  0.00  0.00  0.00
  HS02004792HS02004799    1.00   0.00  0.00  0.00  1.00  0.00  0.00  0.00  0.98  0.00
  HS02004788HS02004792    1.00   0.00  0.00  0.00  1.00  0.00  0.00  0.00  0.98  0.00
  HS02004785HS02004788    1.00   0.00  0.00  0.00  1.00  0.00  0.00  0.00  0.00  0.00
  HS02004777HS02004785    1.00   0.00  0.00  0.00  1.00  0.00  0.00  0.00  0.12  0.00
  HS02004480HS02004478    1.00   0.04  0.00  0.00  0.63  0.00  0.00  0.32  0.00  0.00
  HS02004479HS02004480    1.00   0.01  0.00  0.00  0.99  0.00  0.00  0.00  0.12  0.00
  HS02004862HS02004870    1.00   0.00  0.00  0.00  1.00  0.00  0.00  0.00  0.04  0.00
  HS02004848HS02004852    1.00   0.04  0.00  0.00  0.96  0.00  0.00  0.00  0.64  0.00
  HS02004856HS02004862    1.00   0.00  0.05  0.00  0.95  0.00  0.00  0.00  0.83  0.00
  HS02004852HS02004856    1.00   0.04  0.00  0.00  0.96  0.00  0.00  0.00  0.81  0.00
  HS02004802HS02004478    1.00   0.04  0.00  0.00  0.96  0.00  0.00  0.00  0.02  0.00
  HS02004478WS02006287    1.00   0.05  0.00  0.00  0.72  0.23  0.00  0.00  0.65  0.00
  HS02004817HS02004807    1.00   0.00  0.04  0.00  0.96  0.00  0.00  0.00  0.01  0.00
  HS02004807HS02004802    1.00   0.04  0.00  0.00  0.95  0.00  0.00  0.01  0.00  0.00
  YS02001759YS02001757    1.00   0.00  0.00  0.00  1.00  0.00  0.00  0.00  0.16  0.00
  YS02001762YS02001759    1.00   0.00  0.00  0.00  1.00  0.00  0.00  0.00  0.03  0.00
  YS02001765YS02001762    1.00   0.00  0.00  0.00  1.00  0.00  0.00  0.00  0.14  0.00
  YS02001770YS02001767    1.00   0.00  0.00  0.00  1.00  0.00  0.00  0.00  0.00  0.00
  YS02001774YS02001770    1.00   0.00  0.04  0.00  0.96  0.00  0.00  0.00  0.03  0.00
  YS02001779YS02001774    1.00   0.00  0.00  0.00  1.00  0.00  0.00  0.00  0.19  0.00
  YS02001649YS02001757    1.00   0.00  0.00  0.00  1.00  0.00  0.00  0.00  0.16  0.00
  YS02001767YS02001765    1.00   0.00  0.00  0.00  1.00  0.00  0.00  0.00  0.00  0.00
  YS02006561YS02001783    1.00   0.06  0.00  0.00  0.37  0.57  0.00  0.00  0.47  0.00
  YS02001783YS02001784    1.00   0.00  0.06  0.00  0.94  0.00  0.00  0.00  0.01  0.00
  YS02001784YS02001785    1.00   0.00  0.00  0.00  1.00  0.00  0.00  0.00  0.18  0.00
  YS02001788YS02001790    1.00   0.00  0.00  0.00  0.42  0.58  0.00  0.00  0.36  0.00
  YS02001790YS02001791    1.00   0.00  0.00  0.00  0.38  0.62  0.00  0.00  0.45  0.00
  YS02001791YS02001793    1.00   0.00  0.00  0.00  0.42  0.58  0.00  0.00  0.03  0.00
  YS02001910YS02001907    1.00   0.00  0.00  0.00  0.99  0.00  0.00  0.01  0.12  0.00
  YS02001786YS02001788    1.00   0.00  0.00  0.00  0.40  0.60  0.00  0.00  0.00  0.00
  YS02001915YS02001910    1.00   0.00  0.00  0.00  0.99  0.01  0.00  0.00  0.16  0.00
  YS02001918YS02001915    1.00   0.00  0.00  0.00  0.99  0.01  0.00  0.00  0.53  0.00
  YS02001923YS02001920    1.00   0.00  0.00  0.00  1.00  0.00  0.00  0.00  0.82  0.00
  YS02001926YS02001923    1.00   0.00  0.02  0.00  0.20  0.00  0.77  0.00  0.00  0.00
  YS02001929YS02001926    1.00   0.00  0.04  0.00  0.96  0.00  0.00  0.00  0.74  0.00
  YS02001920YS02001918    1.00   0.00  0.00  0.00  1.00  0.00  0.00  0.00  0.00  0.00
  YS02001629YS02163301    1.00   0.05  0.00  0.00  0.95  0.00  0.00  0.00  0.00  0.00
  YS02001619YS02001622    1.00   0.04  0.00  0.00  0.96  0.00  0.00  0.00  0.00  0.00
  YS02001622YS02001625    1.00   0.04  0.00  0.00  0.96  0.00  0.00  0.00  0.05  0.00
  YS02001625YS02001629    1.00   0.04  0.02  0.00  0.92  0.00  0.02  0.00  0.00  0.00
  YS02163301YS02001633    1.00   0.00  0.05  0.00  0.95  0.00  0.00  0.00  0.00  0.00
  YS02163601YS02164001    1.00   0.00  0.03  0.00  0.97  0.00  0.00  0.00  0.00  0.00
  YS02164001YS02001641    1.00   0.00  0.02  0.00  0.97  0.00  0.00  0.00  0.06  0.00
  YS02001641YS02001644    1.00   0.00  0.00  0.00  1.00  0.00  0.00  0.00  0.00  0.00
  YS02001647YS02001649    1.00   0.00  0.06  0.00  0.94  0.00  0.00  0.00  0.01  0.00
  YS02006553YS02006556    1.00   0.01  0.00  0.00  0.99  0.00  0.00  0.00  0.03  0.00
  YS02006556YS02006558    1.00   0.00  0.00  0.00  1.00  0.00  0.00  0.00  0.00  0.00
  YSB6556YSB1171          1.00   0.01  0.03  0.00  0.96  0.00  0.00  0.00  0.00  0.00
  YS02001907YS02006553    1.00   0.00  0.01  0.00  0.99  0.00  0.00  0.00  0.00  0.00
  YS02006558YS02006561    1.00   0.06  0.00  0.00  0.20  0.74  0.00  0.00  0.49  0.00
  YS02001633YS02163601    1.00   0.00  0.00  0.00  1.00  0.00  0.00  0.00  0.15  0.00
  YS02001644YS02001647    1.00   0.00  0.06  0.00  0.94  0.00  0.00  0.00  0.00  0.00
  YS02001745YS02001748    1.00   0.00  0.00  0.00  0.89  0.01  0.00  0.11  0.04  0.00
  YS02001748YS02001751    1.00   0.00  0.00  0.00  0.96  0.04  0.00  0.00  0.15  0.00
  YS02001751YS02001754    1.00   0.00  0.00  0.00  0.93  0.00  0.00  0.07  0.02  0.00
  YS02001754YS02001757    1.00   0.00  0.00  0.00  1.00  0.00  0.00  0.00  0.18  0.00
  YS02001882YS02001884    1.00   0.05  0.00  0.00  0.95  0.00  0.00  0.00  0.00  0.00
  YS02001884YS02001887    1.00   0.02  0.02  0.00  0.96  0.00  0.00  0.00  0.00  0.00
  YS02001890YS02001895    1.00   0.00  0.05  0.00  0.95  0.00  0.00  0.00  0.00  0.00
  YS02001895YS02001898    1.00   0.05  0.00  0.00  0.94  0.00  0.01  0.00  0.00  0.00
  YS02001898YS02001901    1.00   0.05  0.00  0.00  0.95  0.00  0.00  0.00  0.01  0.00
  YS02001901YS02001904    1.00   0.05  0.00  0.00  0.95  0.00  0.00  0.00  0.00  0.00
  YS02001904YS02001907    1.00   0.00  0.05  0.00  0.95  0.00  0.00  0.00  0.00  0.00
  YS02001887YS02001890    1.00   0.00  0.00  0.00  0.99  0.00  0.01  0.00  0.00  0.00
  YS02001652YS02001649    1.00   0.00  0.00  0.00  1.00  0.00  0.00  0.00  0.17  0.00
  YS02001655YS02001652    1.00   0.00  0.00  0.00  0.93  0.00  0.00  0.07  0.02  0.00
  YS02001658YS02001655    1.00   0.00  0.05  0.00  0.92  0.04  0.00  0.00  0.10  0.00
  YS02001661YS02001658    1.00   0.05  0.00  0.00  0.89  0.07  0.00  0.00  0.11  0.00
  YS02001664YS02001661    1.00   0.04  0.00  0.00  0.91  0.05  0.00  0.00  0.20  0.00
  YSB1154YSB6556          1.00   0.04  0.00  0.00  0.96  0.00  0.00  0.00  0.02  0.00
  YSB1174YSB1171          1.00   0.02  0.01  0.00  0.97  0.00  0.00  0.00  0.00  0.00
  YSB1171HS02004479       1.00   0.01  0.00  0.00  0.98  0.00  0.00  0.00  0.10  0.00
  HS02004881HS02006253    1.00   0.02  0.00  0.00  0.37  0.04  0.00  0.57  0.23  0.00
  YS02001793JiankangQianchi    1.00   0.00  0.00  0.00  0.66  0.33  0.00  0.00  0.36  0.00
  YS02001757CaochengTiaoxuchi    1.00   0.00  0.08  0.00  0.92  0.00  0.00  0.00  0.00  0.00
  WSF200WS02003060        1.00   0.00  0.01  0.00  0.96  0.02  0.00  0.00  0.54  0.00
  1                       1.00   0.00  0.00  0.00  0.00  1.00  0.00  0.00  0.51  0.00
  
  
  *************************
  Conduit Surcharge Summary
  *************************
  
  ----------------------------------------------------------------------------
                                                           Hours        Hours 
                         --------- Hours Full --------   Above Full   Capacity
  Conduit                Both Ends  Upstream  Dnstream   Normal Flow   Limited
  ----------------------------------------------------------------------------
  WS02006229WS02006228        2.19      2.26      2.19      3.32         2.19
  WS02006256WS02006235        4.88      4.89      6.66      4.37         0.01
  WS02006253WS02006251        0.39      0.40      0.40      0.01         0.01
  WS02006252WS02006251        0.25      0.25      0.35      0.11         0.01
  WS02006251WS02006249        0.40      0.40      0.42      0.04         0.04
  WS02006249WS02006248        0.42      0.42      0.42      0.63         0.01
  WS02006248WS02006247        0.43      0.43      0.48      0.01         0.01
  WS02006247WS02006245        0.49      0.49      0.49      1.44         0.31
  WS02006245WS02006243        0.50      0.50      0.55      0.01         0.01
  WS02006243WS02006242        0.56      0.56      0.74      0.01         0.01
  WS02006242WS02006240        0.71      0.71      0.87      0.11         0.01
  WS02006240WS02006239        0.74      0.74      0.87      0.01         0.03
  WS02006239WS02006238        1.22      1.22      1.49      0.01         0.02
  WS02006238WS02006235        1.48      1.48      1.72      0.01         0.01
  WS02006235WS02006234        0.98      0.98      1.38      4.80         0.01
  WS02006234WS02006232        1.18      1.18      1.98      0.03         0.04
  WS02006232WS02006231        0.75      0.75      1.98      0.09         0.01
  WS02006231WS02006230        0.65      0.65      0.78      4.96         0.01
  WS02006230WS02006229        2.73      3.07      2.73      5.33         2.73
  WS02006228WS02006109        2.21      2.52      2.21      4.38         2.21
[...]
  YS02001770YS02001767        5.69      5.69      5.69      0.45         0.59
  YS02001774YS02001770        5.68      5.68      5.74      0.01         0.01
  YS02001779YS02001774        5.56      5.56      5.74      0.01         0.01
  YS02001649YS02001757        5.76      5.76      5.86      0.01         0.01
  YS02001767YS02001765        5.69      5.69      5.72      0.01         0.01
  YS02006561YS02001783        0.99      0.99      1.27      0.01         0.01
  YS02001783YS02001784        1.25      1.27      1.25      1.53         1.23
  YS02001784YS02001785        1.20      1.25      1.20      2.50         1.20
  YS02001788YS02001790        1.15      1.15      2.05      0.01         0.01
  YS02001790YS02001791        2.04      2.05      2.14      1.10         1.08
  YS02001791YS02001793        2.14      2.14      2.47      0.01         0.01
  YS02001910YS02001907        1.26      1.26      1.88      0.01         0.01
  YS02001786YS02001788        1.14      1.20      1.15      2.08         1.14
  YS02001915YS02001910        1.10      1.10      1.26      0.01         0.01
  YS02001918YS02001915        0.93      0.93      1.10      0.01         0.01
  YS02001923YS02001920        0.77      0.77      0.96      0.01         0.01
  YS02001920YS02001918        0.93      0.93      0.96      0.01         0.01
  YS02001629YS02163301        5.67      5.67      5.69      0.01         0.01
  YS02001619YS02001622        5.38      5.38      5.41      0.01         0.01
  YS02001622YS02001625        5.41      5.41      5.64      0.01         0.01
  YS02001625YS02001629        5.39      5.39      5.64      0.01         0.01
  YS02163301YS02001633        5.69      5.69      5.72      0.01         0.01
  YS02163601YS02164001        5.72      5.72      5.75      0.01         0.01
  YS02164001YS02001641        5.72      5.72      5.73      0.01         0.02
  YS02001641YS02001644        5.72      5.73      5.73      1.71         1.84
  YS02001647YS02001649        5.62      5.62      5.76      0.01         0.01
  YS02006553YS02006556        1.47      1.47      2.00      0.01         0.01
  YS02006556YS02006558        1.64      1.64      2.08      0.01         0.01
  YSB6556YSB1171              0.01      0.01      0.07      0.01         0.01
  YS02001907YS02006553        2.55      2.55      2.79      0.01         0.01
  YS02006558YS02006561        1.10      1.43      1.10      2.35         1.10
  YS02001633YS02163601        5.71      5.71      5.75      0.01         0.01
  YS02001644YS02001647        5.62      5.62      5.73      0.01         0.01
  YS02001745YS02001748        0.01      0.01      5.22      0.01         0.01
  YS02001748YS02001751        5.27      5.27      5.38      0.01         0.01
  YS02001751YS02001754        5.38      5.38      5.58      0.01         0.01
  YS02001754YS02001757        5.61      5.61      5.86      0.01         0.01
  YS02001882YS02001884        1.11      1.11      1.14      0.01         0.01
  YS02001884YS02001887        1.18      1.18      1.19      0.01         0.01
  YS02001890YS02001895        1.09      1.09      1.28      0.01         0.01
  YS02001895YS02001898        1.08      1.08      1.09      0.01         0.01
  YS02001898YS02001901        1.10      1.10      1.16      0.01         0.01
  YS02001901YS02001904        1.15      1.15      1.16      0.01         0.01
  YS02001904YS02001907        1.15      1.15      2.02      0.01         0.01
  YS02001887YS02001890        1.22      1.22      1.25      0.16         0.01
  YS02001652YS02001649        5.63      5.63      5.76      0.01         0.01
  YS02001655YS02001652        5.40      5.40      5.61      0.01         0.01
  YS02001658YS02001655        5.25      5.25      5.40      0.01         0.01
  YS02001661YS02001658        0.09      0.09      5.25      0.01         0.01
  YS02001664YS02001661        0.01      0.01      1.18      0.01         0.01
  HS02004881HS02006253        0.01      0.01      0.27      0.01         0.01
  YS02001793JiankangQianchi        2.39      2.39      3.96      0.01         0.01
  YS02001757CaochengTiaoxuchi        5.11      5.11      5.86      0.01         0.01
  
  
  ***************
  Pumping Summary
  ***************
  
  ---------------------------------------------------------------------------------------------------------
                                                  Min       Avg       Max     Total     Power    % Time Off
                        Percent   Number of      Flow      Flow      Flow    Volume     Usage    Pump Curve
  Pump                 Utilized   Start-Ups       LPS       LPS       LPS  10^6 ltr     Kw-hr    Low   High
  ---------------------------------------------------------------------------------------------------------
  CC-Pump-1               36.15           7      0.00    124.03    200.00     1.140      0.70    0.0    0.0
  CC-Pump-2                4.26           1      0.00    101.88    199.71     0.120      0.11    0.0    0.0
  JK-Pump-1               61.70           5      0.00    229.37    300.00     3.716     56.04    0.0    0.0
  JK-Pump-2               57.45           5      0.00    439.76    683.00     6.558     90.48    0.0   96.1
  XR-Pump-1               97.87           2      0.00     92.96     95.00     2.508     22.82    0.0    0.0
  XR-Pump-2               95.74           3      0.00     92.87     95.00     2.451     21.84    0.0    0.0
  XR-Pump-3               93.62           3      0.00     92.89     95.00     2.394     20.51    0.0    0.0
  XR-Pump-4               93.62           3      0.00     92.89     95.00     2.394     20.51    0.0    0.0
  
  
  ***************************
  Link Pollutant Load Summary
  ***************************
  
  ------------------------------------------------------------------------------------------
                                 COD            SS            TN            TP         NH4-N
  Link                            kg            kg            kg            kg            kg
  ------------------------------------------------------------------------------------------
  WS02003066WSF200           685.987      1289.489        18.694         1.683         9.943
  WS02006287WS02006284       319.446       608.041        10.314         1.015         5.678
  WS02006284WS02006280       319.923       608.820        10.359         1.021         5.707
  WS02006280WS02006229       319.869       608.708        10.357         1.020         5.705
  WS02006229WS02006228       673.585      1267.321        17.996         1.599         9.524
  WS02006256WS02006235       212.532       392.789         4.676         0.363         2.362
  WS02006253WS02006251        57.862       114.565         1.227         0.089         0.601
  WS02006252WS02006251       113.183       207.533         2.369         0.174         1.168
  WS02006251WS02006249       166.868       314.545         3.523         0.259         1.736
  WS02006249WS02006248       152.475       286.443         3.224         0.237         1.589
  WS02006248WS02006247       152.060       285.691         3.216         0.236         1.585
  WS02006247WS02006245       151.250       284.216         3.198         0.235         1.576
  WS02006245WS02006243       150.191       282.368         3.171         0.233         1.562
  WS02006243WS02006242       149.485       281.060         3.160         0.232         1.557
  WS02006242WS02006240       150.268       282.444         3.180         0.234         1.568
  WS02006240WS02006239       152.586       286.566         3.238         0.238         1.598
  WS02006239WS02006238       155.423       291.216         3.327         0.247         1.647
  WS02006238WS02006235       157.307       294.301         3.381         0.252         1.676
  WS02006235WS02006234       356.239       663.118         7.710         0.585         3.857
  WS02006234WS02006232       356.005       662.636         7.710         0.586         3.857
  WS02006232WS02006231       355.390       661.534         7.695         0.585         3.850
  WS02006231WS02006230       354.956       660.792         7.685         0.584         3.845
  WS02006230WS02006229       354.423       659.836         7.668         0.582         3.836
  WS02006228WS02006109       672.966      1266.162        17.978         1.598         9.515
  WS02006116WS02004401       689.321      1295.431        18.859         1.701        10.040
  WS02006115WS02006116       689.870      1296.417        18.877         1.703        10.050
  WS02006113WS02006111       679.453      1276.113        18.715         1.692         9.980
  WS02006112WS02006115       690.771      1297.972        18.919         1.708        10.075
  WS02006111WS02006112       679.294      1275.863        18.710         1.691         9.977
  WS02006110WS02006113       680.011      1277.114        18.741         1.694         9.994
  WS02006109WS02006110       680.947      1278.762        18.786         1.699        10.021
  WS02004411WS02004412       687.595      1292.208        18.801         1.695        10.007
  WS02004401WS02004402       688.604      1294.190        18.824         1.697        10.019
  WS02004413WS02003067       686.091      1289.724        18.699         1.683         9.946
  WS02004412WS02004413       687.304      1291.729        18.779         1.693         9.994
  WS02004410WS02004411       687.781      1292.533        18.815         1.697        10.016
  WS02004409WS02004410       688.090      1293.056        18.836         1.700        10.029
  WS02004407WS02004409       688.104      1293.093        18.841         1.700        10.032
  WS02004406WS02004407       687.893      1292.774        18.830         1.699        10.026
  WS02004405WS02004406       688.831      1294.362        18.898         1.707        10.067
  WS02004404WS02004405       688.466      1293.791        18.865         1.703        10.047
  WS02004403WS02004404       687.646      1292.524        18.775         1.692         9.990
  WS02004402WS02004403       688.185      1293.448        18.805         1.695        10.008
  WS02004139WS02001211      1363.214      2264.146       110.531        13.490        68.127
  WS02004138WS02004139      1369.515      2274.667       111.019        13.549        68.427
  WS02003067WS02003066       686.113      1289.713        18.701         1.684         9.947
  WS02001213WS02003059      1396.543      2316.526       113.984        13.926        70.297
  WS02001212WS02001213      1405.763      2331.794       114.734        14.018        70.759
  WS02001211WS02001212      1407.654      2334.886       114.895        14.037        70.859
  WS02003072WS02003073      2184.750      3768.756       142.710        16.866        86.519
  WS02003069WS02003072      2189.243      3776.048       143.093        16.913        86.756
  WS02003060WS02003069      2191.435      3779.769       143.246        16.932        86.850
  WS02003059WS02003060      1393.699      2311.693       113.786        13.902        70.177
  HS02004901HS02004770        13.092        25.471         0.248         0.019         0.116
  HS02004876HS02004881        45.512        90.339         0.999         0.073         0.491
  HS02004870HS02004876        34.380        68.099         0.798         0.060         0.395
  HS02004842HS02004848         6.456        12.343         0.134         0.009         0.062
  HS02004837HS02004842        11.055        19.634         0.603         0.068         0.356
  HS02004830HS02004837        70.295       122.721         4.643         0.552         2.827
  HS02004824HS02004830        71.066       123.975         4.715         0.561         2.871
  HS02004817HS02004824        97.159       176.397         5.254         0.596         3.134
  HS02004770HS02004777        49.658        97.705         1.021         0.069         0.472
  HS02004799HS02004480       162.310       310.806         4.263         0.379         2.209
  HS02004792HS02004799       147.262       280.098         4.028         0.367         2.105
  HS02004788HS02004792        82.811       157.673         2.666         0.255         1.440
  HS02004785HS02004788        51.117       100.040         1.172         0.089         0.567
  HS02004777HS02004785        50.443        98.936         1.112         0.081         0.530
  HS02004480HS02004478       204.797       395.135         4.971         0.429         2.543
  HS02004479HS02004480        46.119        90.098         1.036         0.091         0.538
  HS02004862HS02004870        25.798        50.336         0.628         0.050         0.314
  HS02004848HS02004852        10.251        19.883         0.210         0.014         0.097
  HS02004856HS02004862        17.524        34.747         0.350         0.023         0.164
  HS02004852HS02004856        10.255        19.888         0.210         0.014         0.097
  HS02004802HS02004478       115.332       214.032         5.397         0.592         3.169
  HS02004478WS02006287       319.660       608.413        10.331         1.017         5.689
  HS02004817HS02004807        95.854       174.302         5.130         0.581         3.057
  HS02004807HS02004802       115.591       214.437         5.430         0.596         3.189
  YS02001759YS02001757       303.088       557.095         6.036         0.421         2.950
  YS02001762YS02001759       174.704       322.550         3.618         0.256         1.785
  YS02001765YS02001762       176.164       326.114         3.662         0.260         1.809
  YS02001770YS02001767       180.367       336.463         3.602         0.245         1.755
  YS02001774YS02001770       312.352       602.847         6.044         0.403         2.924
  YS02001779YS02001774       311.743       601.673         6.127         0.416         2.982
  YS02001649YS02001757       405.767       735.335         8.221         0.562         3.968
  YS02001767YS02001765       178.304       330.991         3.712         0.264         1.835
  YS02006561YS02001783      1018.669      1887.921        21.361         1.595        10.630
  YS02001783YS02001784      1018.557      1887.748        21.357         1.594        10.628
  YS02001784YS02001785      1025.911      1899.541        22.071         1.683        11.074
  YS02001788YS02001790      1026.518      1900.532        22.143         1.693        11.120
  YS02001790YS02001791      1027.640      1902.377        22.245         1.705        11.184
  YS02001791YS02001793      1027.512      1902.146        22.240         1.705        11.181
  YS02001910YS02001907       391.177       721.564         9.380         0.717         4.805
  YS02001786YS02001788      1026.113      1899.880        22.098         1.687        11.092
  YS02001915YS02001910       391.236       721.658         9.332         0.710         4.772
  YS02001918YS02001915       189.997       335.699         5.202         0.471         2.797
  YS02001923YS02001920       166.982       297.553         3.206         0.226         1.558
  YS02001926YS02001923       164.824       293.826         3.109         0.215         1.501
  YS02001929YS02001926       164.193       292.749         3.065         0.210         1.474
  YS02001920YS02001918       187.509       330.649         5.126         0.465         2.756
  YS02001629YS02163301        96.068       169.872         2.028         0.131         0.946
  YS02001619YS02001622       175.879       321.144         3.602         0.236         1.684
  YS02001622YS02001625       174.676       319.229         3.573         0.234         1.670
  YS02001625YS02001629        97.156       171.651         2.052         0.132         0.957
  YS02163301YS02001633        96.420       170.728         2.030         0.132         0.948
  YS02163601YS02164001       405.658       733.039         7.897         0.562         3.783
  YS02164001YS02001641       405.088       732.068         7.876         0.560         3.771
  YS02001641YS02001644       405.158       732.109         7.872         0.560         3.769
  YS02001647YS02001649       509.449       934.443        10.216         0.705         4.899
  YS02006553YS02006556       684.745      1258.341        14.735         1.129         7.417
  YS02006556YS02006558       684.662      1258.175        14.706         1.125         7.398
  YSB6556YSB1171              26.519        51.962         0.537         0.045         0.271
  YS02001907YS02006553       684.882      1258.619        14.744         1.130         7.423
  YS02006558YS02006561      1018.675      1887.920        21.361         1.594        10.630
  YS02001633YS02163601       406.384       734.168         7.878         0.558         3.767
  YS02001644YS02001647       514.609       943.926        10.292         0.710         4.933
  YS02001745YS02001748       249.132       466.010         5.418         0.371         2.683
  YS02001748YS02001751       247.727       463.210         5.503         0.385         2.745
  YS02001751YS02001754       246.824       461.708         5.496         0.386         2.744
  YS02001754YS02001757       247.548       462.780         5.660         0.408         2.851
  YS02001882YS02001884         2.089         3.565         0.044         0.003         0.022
  YS02001884YS02001887         6.631        11.741         0.131         0.010         0.065
  YS02001890YS02001895       451.081       846.657         8.304         0.624         4.050
  YS02001895YS02001898       450.947       846.496         8.298         0.624         4.047
  YS02001898YS02001901       450.764       846.184         8.294         0.624         4.045
  YS02001901YS02001904       450.611       845.966         8.300         0.625         4.050
  YS02001904YS02001907       450.836       846.309         8.353         0.632         4.084
  YS02001887YS02001890       468.389       880.986         8.648         0.653         4.224
  YS02001652YS02001649       203.403       377.881         4.096         0.295         1.921
  YS02001655YS02001652       204.121       379.037         4.115         0.296         1.930
  YS02001658YS02001655       203.807       378.531         4.032         0.285         1.875
  YS02001661YS02001658       206.405       383.096         4.087         0.289         1.900
  YS02001664YS02001661       217.587       401.457         4.340         0.306         2.016
  YSB1154YSB6556              26.082        51.266         0.486         0.038         0.239
  YSB1174YSB1171              18.020        35.560         0.361         0.029         0.180
  YSB1171HS02004479           46.085        90.045         1.039         0.092         0.540
  HS02004881HS02006253        51.480       102.530         1.109         0.080         0.544
  YS02001793JiankangQianchi      1029.330      1905.039        22.343         1.717        11.242
  YS02001757CaochengTiaoxuchi       481.272       879.248        10.090         0.732         4.969
  WSF200WS02003060           686.382      1290.113        18.720         1.686         9.959
  1                         2190.657      3777.518       143.399        16.954        86.955
  CC-Pump-1                  102.025       187.078         2.128         0.156         1.048
  CC-Pump-2                   10.933        20.077         0.228         0.017         0.112
  JK-Pump-1                  257.256       480.516         5.487         0.419         2.750
  JK-Pump-2                  552.506      1039.671        11.517         0.869         5.741
  XR-Pump-1                  356.461       591.251        29.082         3.553        17.935
  XR-Pump-2                  346.652       575.549        28.153         3.437        17.355
  XR-Pump-3                  335.112       557.087        27.050         3.299        16.667
  XR-Pump-4                  335.112       557.087        27.050         3.299        16.667
  

  Analysis begun on:  Thu Jul 15 16:29:17 2021
  Analysis ended on:  Thu Jul 15 16:29:19 2021
  Total elapsed time: 00:00:02