
  EPA STORM WATER MANAGEMENT MODEL - VERSION 5.1 (Build 5.3.0.dev0)
  --------------------------------------------------------------

  WARNING 04: minimum elevation drop used for Conduit WS02004404WS02004405
  WARNING 03: negative offset ignored for Link YS02001904YS02001907
  
  *********************************************************
  NOTE: The summary statistics displayed in this report are
  based on results found at every computational time step,  
  not just on results from each reporting time step.
  *********************************************************
  
  ****************
  Analysis Options
  ****************
  Flow Units ............... LPS
  Process Models:
    Rainfall/Runoff ........ YES
    RDII ................... NO
    Snowmelt ............... NO
    Groundwater ............ NO
    Flow Routing ........... YES
    Ponding Allowed ........ NO
    Water Quality .......... YES
  Infiltration Method ...... HORTON
  Flow Routing Method ...... DYNWAVE
  Surcharge Method ......... EXTRAN
  Starting Date ............ 08/28/2015 08:00:00
  Ending Date .............. 08/28/2015 15:50:00
  Antecedent Dry Days ...... 8.0
  Report Time Step ......... 00:01:00
  Wet Time Step ............ 00:01:00
  Dry Time Step ............ 00:01:00
  Routing Time Step ........ 5.00 sec
  Variable Time Step ....... YES
  Maximum Trials ........... 8
  Number of Threads ........ 4
  Head Tolerance ........... 0.001500 m
  
  
  **************************        Volume         Depth
  Runoff Quantity Continuity     hectare-m            mm
  **************************     ---------       -------
  Total Precipitation ......         6.144        13.452
  Evaporation Loss .........         0.000         0.000
  Infiltration Loss ........         1.064         2.328
  Surface Runoff ...........         4.147         9.079
  Final Storage ............         0.935         2.047
  Continuity Error (%) .....        -0.020
  
  
  **************************           COD            SS            TN            TP         NH4-N
  Runoff Quality Continuity             kg            kg            kg            kg            kg
  **************************    ----------    ----------    ----------    ----------    ----------
  Initial Buildup ..........     41378.656     70582.865      1804.177       168.684      1032.807
  Surface Buildup ..........        21.799        40.924         2.400         0.218         1.395
  Wet Deposition ...........         0.000         0.000         0.000         0.000         0.000
  Sweeping Removal .........         0.000         0.000         0.000         0.000         0.000
  Infiltration Loss ........        97.311       184.943         1.849         0.130         0.881
  BMP Removal ..............         0.000         0.000         0.000         0.000         0.000
  Surface Runoff ...........      3769.819      7064.251        72.781         4.964        34.599
  Remaining Buildup ........     37531.916     63371.884      1731.919       163.806       998.709
  Continuity Error (%) .....         0.003         0.004         0.002         0.001         0.001
  
  
  **************************        Volume        Volume
  Flow Routing Continuity        hectare-m      10^6 ltr
  **************************     ---------     ---------
  Dry Weather Inflow .......         0.616         6.165
  Wet Weather Inflow .......         4.145        41.453
  Groundwater Inflow .......         0.000         0.000
  RDII Inflow ..............         0.000         0.000
  External Inflow ..........         0.102         1.024
  External Outflow .........         1.891        18.913
  Flooding Loss ............         2.521        25.214
  Evaporation Loss .........         0.000         0.000
  Exfiltration Loss ........         0.000         0.000
  Initial Stored Volume ....         0.076         0.761
  Final Stored Volume ......         0.639         6.391
  Continuity Error (%) .....        -2.261
  
  
  **************************           COD            SS            TN            TP         NH4-N
  Quality Routing Continuity            kg            kg            kg            kg            kg
  **************************    ----------    ----------    ----------    ----------    ----------
  Dry Weather Inflow .......      1541.201      2465.922       147.955        18.494        92.472
  Wet Weather Inflow .......      3769.188      7063.245        72.766         4.964        34.593
  Groundwater Inflow .......         0.000         0.000         0.000         0.000         0.000
  RDII Inflow ..............         0.000         0.000         0.000         0.000         0.000
  External Inflow ..........       183.418       293.469        17.608         2.201        11.005
  External Outflow .........      2299.677      3971.916       147.402        17.358        89.211
  Flooding Loss ............      2531.119      4712.630        63.701         5.478        33.295
  Exfiltration Loss ........         0.000         0.000         0.000         0.000         0.000
  Mass Reacted .............         0.000         0.000         0.000         0.000         0.000
  Initial Stored Mass ......         0.000         0.000         0.000         0.000         0.000
  Final Stored Mass ........       550.284       947.833        24.348         2.594        14.088
  Continuity Error (%) .....         2.052         1.937         1.208         0.895         1.069
  
  
  *************************
  Highest Continuity Errors
  *************************
  Node HS02004842 (13.41%)
  Node JK-storage (-10.40%)
  Node YS02001884 (8.69%)
  Node HS02004817 (2.53%)
  Node YSB1171 (2.46%)
  
  
  ***************************
  Time-Step Critical Elements
  ***************************
  Link WS02006252WS02006251 (58.16%)
  Link WS02006280WS02006229 (12.17%)
  Link WS02006238WS02006235 (9.89%)
  Link WS02004404WS02004405 (2.64%)
  Link YS02001793JiankangQianchi (2.13%)
  
  
  ********************************
  Highest Flow Instability Indexes
  ********************************
  Link WS02006113WS02006111 (49)
  Link YS02163601YS02164001 (29)
  Link YS02001629YS02163301 (29)
  Link YS02163301YS02001633 (28)
  Link YS02001619YS02001622 (27)
  
  
  *************************
  Routing Time Step Summary
  *************************
  Minimum Time Step           :     0.50 sec
  Average Time Step           :     1.29 sec
  Maximum Time Step           :     5.00 sec
  Percent in Steady State     :    -0.00
  Average Iterations per Step :     3.98
  Percent Not Converging      :    16.65
  
  
  ***************************
  Subcatchment Runoff Summary
  ***************************
  
  ------------------------------------------------------------------------------------------------------------------------------
                            Total      Total      Total      Total     Imperv       Perv      Total       Total     Peak  Runoff
                           Precip      Runon       Evap      Infil     Runoff     Runoff     Runoff      Runoff   Runoff   Coeff
  Subcatchment                 mm         mm         mm         mm         mm         mm         mm    10^6 ltr      LPS
  ------------------------------------------------------------------------------------------------------------------------------
  sub0                      13.45       0.00       0.00       0.63      12.47       0.31      12.77        0.01     3.75   0.950
  sub1                      13.45       0.00       0.00       1.12      11.88       0.36      12.24        0.08    25.66   0.910
  sub2                      13.45       0.00       0.00       4.44       8.39       0.53       8.92        0.08    25.29   0.663
  sub3                      13.45       0.00       0.00       4.56       8.35       0.42       8.77        0.20    55.75   0.652
  sub4                      13.45       0.00       0.00       1.22      11.71       0.26      11.97        0.25    65.52   0.890
  sub5                      13.45       0.00       0.00       0.68      12.41       0.26      12.67        0.14    44.76   0.942
  sub7                      13.45       0.00       0.00       0.86      12.18       0.35      12.53        0.04    14.26   0.931
  sub8                      13.45       0.00       0.00       0.87      12.17       0.34      12.50        0.08    26.26   0.930
  sub9                      13.45       0.00       0.00       0.88      12.17       0.33      12.50        0.06    19.64   0.929
  sub10                     13.45       0.00       0.00       0.78      12.29       0.29      12.58        0.14    44.00   0.935
  sub11                     13.45       0.00       0.00       0.77      12.30       0.31      12.61        0.15    48.45   0.938
  sub12                     13.45       0.00       0.00       1.25      11.66       0.50      12.16        0.11    38.10   0.904
  sub14                     13.45       0.00       0.00       0.88      12.16       0.33      12.49        0.12    38.67   0.929
  sub15                     13.45       0.00       0.00       3.37       9.35       0.66      10.01        0.17    57.01   0.744
  sub16                     13.45       0.00       0.00       3.56       8.97       0.88       9.85        0.10    37.63   0.732
  sub17                     13.45       0.00       0.00       3.47       9.10       0.84       9.94        0.09    30.67   0.739
  sub22                     13.45       0.00       0.00       4.98       7.63       0.81       8.43        0.53   184.54   0.627
  sub23                     13.45       0.00       0.00       4.17       8.43       0.81       9.24        0.44   154.22   0.687
  sub60                     13.45       0.00       0.00       1.53       9.85       0.09       9.93        3.01   438.14   0.738
  sub61                     13.45       0.00       0.00       2.16       9.95       0.12      10.07        3.11   536.45   0.749
  sub62                     13.45       0.00       0.00       0.98      10.84       0.10      10.94        3.36   552.35   0.813
  sub63                     13.45       0.00       0.00       3.77       8.69       0.14       8.83        2.67   492.63   0.656
  sub64                     13.45       0.00       0.00       1.93       9.45       0.09       9.54        2.90   416.72   0.709
  sub65                     13.45       0.00       0.00       1.67       9.61       0.08       9.70        2.98   423.09   0.721
  sub66                     13.45       0.00       0.00       3.81       8.10       0.09       8.18        2.51   380.66   0.608
  sub67                     13.45       0.00       0.00       0.95      11.38       0.13      11.51        3.55   679.52   0.856
  sub68                     13.45       0.00       0.00       1.75      10.45       0.13      10.59        3.26   586.26   0.787
  sub69                     13.45       0.00       0.00       1.83      10.79       0.19      10.98        2.57   544.72   0.816
  sub70                     13.45      11.20       0.00       7.51      14.65       0.88      15.52        3.55   494.81   0.630
  sub71                     13.45       0.00       0.00       0.99      10.58       0.09      10.67        2.52   389.24   0.793
  sub72                     13.45       0.00       0.00       0.89       8.56       0.05       8.61        1.75   189.18   0.640
  1                         13.45      15.11       0.00       1.37      16.56       4.63      21.19        4.98   484.42   0.742
  2                         13.45       0.00       0.00       3.02       3.21       1.96       5.17        2.07   340.45   0.384
  
  
  ****************************
  Subcatchment Washoff Summary
  ****************************
  
  ------------------------------------------------------------------------------------------
                                 COD            SS            TN            TP         NH4-N
  Subcatchment                    kg            kg            kg            kg            kg
  ------------------------------------------------------------------------------------------
  sub0                         2.670         5.197         0.046         0.004         0.022
  sub1                        11.241        22.423         0.210         0.015         0.101
  sub2                         6.894        13.384         0.145         0.010         0.067
  sub3                        16.924        32.573         0.350         0.024         0.161
  sub4                        25.772        51.904         0.510         0.031         0.245
  sub5                        25.778        50.682         0.460         0.035         0.223
  sub7                         5.751        11.638         0.108         0.007         0.052
  sub8                         8.581        17.755         0.171         0.010         0.082
  sub9                         7.353        15.005         0.142         0.009         0.068
  sub10                       21.202        42.223         0.389         0.028         0.188
  sub11                       20.657        41.614         0.386         0.026         0.187
  sub12                       17.724        35.094         0.321         0.024         0.155
  sub14                       15.732        31.800         0.298         0.020         0.144
  sub15                       20.231        39.321         0.389         0.028         0.182
  sub16                       13.129        25.518         0.249         0.019         0.117
  sub17                       12.049        23.208         0.222         0.017         0.105
  sub22                       62.582       119.432         1.186         0.090         0.554
  sub23                       36.683        72.439         0.776         0.051         0.357
  sub60                      243.520       456.962         4.842         0.298         2.321
  sub61                      302.151       564.434         5.627         0.386         2.710
  sub62                      313.722       596.076         6.119         0.388         2.938
  sub63                      223.275       410.850         4.468         0.314         2.075
  sub64                      305.877       553.773         5.626         0.410         2.687
  sub65                      313.037       569.066         5.795         0.415         2.772
  sub66                      176.068       321.340         3.608         0.236         1.687
  sub67                      466.222       877.505         8.365         0.616         4.045
  sub68                      332.037       626.413         6.347         0.429         3.034
  sub69                      298.258       568.561         5.590         0.393         2.674
  sub70                      502.897       962.303        10.037         0.699         4.710
  sub71                      206.745       396.330         4.242         0.246         2.030
  sub72                      164.385       293.107         3.069         0.210         1.476
  1                          349.075       671.606         7.102         0.495         3.297
  2                           42.749        75.577         1.214         0.073         0.518
  ------------------------------------------------------------------------------------------
  System                    4570.974      8595.115        88.408         6.057        41.983
  
  
  ******************
  Node Depth Summary
  ******************
  
  ---------------------------------------------------------------------------------
                                 Average  Maximum  Maximum  Time of Max    Reported
                                   Depth    Depth      HGL   Occurrence   Max Depth
  Node                 Type       Meters   Meters   Meters  days hr:min      Meters
  ---------------------------------------------------------------------------------
  WS02001211           JUNCTION     0.77     0.84     5.68     0  03:08        0.84
  WS02001212           JUNCTION     0.48     0.57     5.64     0  03:08        0.57
  WS02001213           JUNCTION     0.71     0.85     5.61     0  03:08        0.85
  WS02003069           JUNCTION     0.50     0.71     5.29     0  03:06        0.71
  WS02003072           JUNCTION     0.56     0.75     5.13     0  03:06        0.75
  WS02003073           JUNCTION     0.34     0.47     4.54     0  03:07        0.47
  WS02003060           JUNCTION     0.44     0.63     5.56     0  03:06        0.63
  WS02003066           JUNCTION     0.24     0.39     5.94     0  03:04        0.39
  WS02003059           JUNCTION     0.76     0.90     5.59     0  03:08        0.90
  WS02003067           JUNCTION     0.59     0.82     6.14     0  03:04        0.82
  WS02004401           JUNCTION     0.70     1.27     7.27     0  03:02        1.24
  WS02004402           JUNCTION     0.73     1.25     7.21     0  03:02        1.22
  WS02004403           JUNCTION     0.75     1.23     7.16     0  03:02        1.20
  WS02004404           JUNCTION     0.82     1.27     7.12     0  03:02        1.25
  WS02004406           JUNCTION     0.82     1.18     7.01     0  03:01        1.16
  WS02004409           JUNCTION     0.51     0.96     6.73     0  03:04        0.96
  WS02004410           JUNCTION     0.53     0.95     6.67     0  03:04        0.95
  WS02004411           JUNCTION     0.54     0.93     6.61     0  03:04        0.93
  WS02004412           JUNCTION     0.56     0.90     6.54     0  03:04        0.90
  WS02004413           JUNCTION     0.72     1.02     6.49     0  03:04        1.02
  WS02004405           JUNCTION     0.82     1.24     7.09     0  03:02        1.21
  WS02006109           JUNCTION     0.79     1.70     8.32     0  03:02        1.68
  WS02006110           JUNCTION     0.77     1.49     8.08     0  03:02        1.46
  WS02006111           JUNCTION     0.24     0.93     7.64     0  03:02        0.90
  WS02006112           JUNCTION     0.87     1.60     7.48     0  03:02        1.56
  WS02006113           JUNCTION     0.36     0.97     7.86     0  03:02        0.94
  WS02006115           JUNCTION     0.59     1.26     7.40     0  03:02        1.22
  WS02006116           JUNCTION     0.67     1.30     7.34     0  03:02        1.26
  WS02006230           JUNCTION     0.78     1.92     8.67     0  03:02        1.90
  WS02006231           JUNCTION     0.53     1.56     8.68     0  03:02        1.55
  WS02006232           JUNCTION     0.66     1.66     8.70     0  03:02        1.64
  WS02006234           JUNCTION     0.59     1.56     8.72     0  03:02        1.54
  WS02006235           JUNCTION     0.63     1.57     8.73     0  03:02        1.55
  WS02006238           JUNCTION     0.65     1.58     8.73     0  03:02        1.57
  WS02006240           JUNCTION     0.54     1.42     8.72     0  03:02        1.41
  WS02006242           JUNCTION     0.58     1.44     8.71     0  03:02        1.43
  WS02006243           JUNCTION     0.46     1.29     8.71     0  03:02        1.28
  WS02006245           JUNCTION     0.43     1.22     8.70     0  03:02        1.21
  WS02006247           JUNCTION     0.44     1.20     8.70     0  03:02        1.19
  WS02006248           JUNCTION     0.38     1.10     8.69     0  03:01        1.10
  WS02006249           JUNCTION     0.40     1.09     8.69     0  03:01        1.09
  WS02006239           JUNCTION     0.60     1.51     8.72     0  03:02        1.50
  WS02006251           JUNCTION     0.37     1.28     8.95     0  07:19        1.15
  WS02006252           JUNCTION     0.24     0.84     9.08     0  07:19        0.68
  WS02006253           JUNCTION     0.40     1.35     8.99     0  07:19        1.18
  WS02006256           JUNCTION     1.75     2.35     9.28     0  00:18        2.35
  WS02004138           JUNCTION     0.19     0.20     7.45     0  00:00        0.19
  WS02004139           JUNCTION     0.71     0.79     5.70     0  03:08        0.79
  WS02004407           JUNCTION     0.23     0.40     6.71     0  03:03        0.40
  WS02006228           JUNCTION     0.80     1.87     8.53     0  03:02        1.86
  WS02006229           JUNCTION     0.78     1.95     8.64     0  03:02        1.94
  WS02006280           JUNCTION     0.07     0.32     8.59     0  03:01        0.30
  WS02006284           JUNCTION     0.37     0.65     9.04     0  03:02        0.64
  WS02006287           JUNCTION     0.10     0.39     9.34     0  03:02        0.39
  WSF200               JUNCTION     0.22     0.44     5.67     0  03:04        0.44
  HS02004901           JUNCTION     0.13     0.38    10.20     0  03:01        0.37
  HS02004881           JUNCTION     0.01     0.05     9.08     0  03:01        0.05
  HS02004876           JUNCTION     0.04     0.16     9.19     0  03:01        0.16
  HS02004870           JUNCTION     0.02     0.09     9.38     0  03:01        0.09
  HS02004862           JUNCTION     0.02     0.11     9.49     0  03:01        0.11
  HS02004856           JUNCTION     0.08     0.15     9.58     0  03:01        0.15
  HS02004852           JUNCTION     0.01     0.07     9.59     0  03:02        0.07
  HS02004848           JUNCTION     0.01     0.07     9.67     0  03:01        0.07
  HS02004842           JUNCTION     0.33     0.40     9.67     0  03:01        0.40
  HS02004837           JUNCTION     0.03     0.09     9.67     0  03:01        0.09
  HS02004830           JUNCTION     0.04     0.10     9.57     0  03:01        0.10
  HS02004824           JUNCTION     0.02     0.13     9.53     0  03:02        0.13
  HS02004817           JUNCTION     0.44     0.69     9.54     0  03:02        0.69
  HS02004807           JUNCTION     0.13     0.36     9.53     0  03:02        0.36
  HS02004802           JUNCTION     0.17     0.39     9.52     0  03:02        0.39
  HS02004799           JUNCTION     0.12     0.46     9.68     0  03:01        0.46
  HS02004792           JUNCTION     0.04     0.22     9.74     0  03:01        0.21
  HS02004788           JUNCTION     0.03     0.16    10.05     0  03:02        0.16
  HS02004785           JUNCTION     0.05     0.25    10.15     0  03:02        0.25
  HS02004777           JUNCTION     0.15     0.39    10.19     0  03:01        0.39
  HS02004770           JUNCTION     0.12     0.37    10.20     0  03:01        0.36
  HS02004480           JUNCTION     0.08     0.38     9.62     0  03:01        0.38
  HS02004479           JUNCTION     0.12     0.42     9.62     0  03:01        0.42
  HS02004478           JUNCTION     0.06     0.28     9.50     0  03:01        0.28
  YS02001745           JUNCTION     0.73     0.96     8.48     0  03:01        0.96
  YS02001748           JUNCTION     1.13     1.65     8.73     0  02:32        1.39
  YS02001751           JUNCTION     1.31     1.71     8.59     0  02:32        1.59
  YS02001754           JUNCTION     1.56     1.86     8.46     0  03:19        1.85
  YS02001762           JUNCTION     1.76     2.05     8.45     0  03:18        2.05
  YS02001765           JUNCTION     1.71     2.00     8.45     0  03:18        2.00
  YS02001767           JUNCTION     1.67     1.96     8.44     0  03:00        1.95
  YS02001770           JUNCTION     1.67     1.94     8.44     0  03:01        1.94
  YS02001774           JUNCTION     1.73     1.99     8.41     0  03:01        1.98
  YS02001779           JUNCTION     1.48     1.68     8.37     0  02:33        1.68
  YS02001882           JUNCTION     0.53     1.64     8.35     0  03:00        1.63
  YS02001884           JUNCTION     0.63     1.74     8.35     0  03:00        1.73
  YS02001759           JUNCTION     1.79     2.09     8.46     0  03:18        2.09
  YS02001887           JUNCTION     0.71     1.81     8.35     0  03:00        1.81
  YS02001890           JUNCTION     0.74     1.81     8.32     0  02:47        1.81
  YS02001898           JUNCTION     0.50     1.56     8.30     0  02:47        1.56
  YS02001901           JUNCTION     0.62     1.68     8.29     0  02:55        1.67
  YS02001904           JUNCTION     0.60     1.64     8.27     0  02:47        1.63
  YS02001907           JUNCTION     0.93     1.96     8.25     0  02:47        1.96
  YS02001910           JUNCTION     0.72     1.79     8.30     0  02:47        1.78
  YS02001915           JUNCTION     0.52     1.61     8.33     0  02:47        1.59
  YS02001918           JUNCTION     0.26     1.31     8.38     0  02:47        1.29
  YS02001619           JUNCTION     1.27     1.61     8.54     0  02:32        1.48
  YS02001629           JUNCTION     1.62     1.85     8.40     0  02:32        1.84
  YS02001641           JUNCTION     1.72     1.94     8.37     0  03:01        1.93
  YS02001644           JUNCTION     1.72     1.92     8.35     0  02:39        1.92
  YS02001652           JUNCTION     1.57     2.00     8.59     0  04:33        1.90
  YS02001655           JUNCTION     1.33     1.92     8.77     0  02:24        1.71
  YS02001920           JUNCTION     0.37     1.40     8.41     0  02:47        1.37
  YS02001923           JUNCTION     0.21     1.16     8.42     0  02:47        1.14
  YS02001926           JUNCTION     0.28     0.99     8.44     0  02:48        0.98
  YS02001929           JUNCTION     0.16     0.74     8.44     0  02:48        0.71
  YS02001658           JUNCTION     1.07     1.73     8.87     0  04:33        1.47
  YS02001661           JUNCTION     0.84     1.98     9.38     0  02:43        1.41
  YS02001664           JUNCTION     0.38     0.58     8.50     0  02:42        0.56
  YS02001622           JUNCTION     1.29     1.62     8.52     0  02:32        1.50
  YS02001633           JUNCTION     1.71     1.95     8.40     0  02:39        1.94
  YS02001649           JUNCTION     1.76     2.05     8.44     0  02:43        2.05
  YS02001757           JUNCTION     1.89     2.20     8.46     0  03:19        2.19
  YS02001895           JUNCTION     0.50     1.57     8.31     0  02:57        1.56
  YS02001625           JUNCTION     1.57     1.78     8.38     0  02:32        1.78
  YS02163301           JUNCTION     1.65     1.88     8.40     0  02:39        1.88
  YS02163601           JUNCTION     1.76     1.99     8.39     0  02:39        1.98
  YS02164001           JUNCTION     1.70     1.92     8.38     0  02:39        1.92
  YS02001647           JUNCTION     1.55     1.80     8.41     0  02:47        1.79
  YSB1154              JUNCTION     0.26     0.57     9.62     0  03:01        0.57
  YSB6556              JUNCTION     0.15     0.45     9.62     0  03:02        0.45
  YSB1174              JUNCTION     0.21     0.52     9.62     0  03:01        0.51
  YSB1171              JUNCTION     0.41     0.72     9.62     0  03:01        0.72
  YS02006553           JUNCTION     0.93     1.97     8.25     0  02:59        1.96
  YS02006561           JUNCTION     0.30     1.09     7.75     0  02:59        1.09
  YS02006556           JUNCTION     0.90     1.93     8.25     0  03:01        1.93
  YS02006558           JUNCTION     0.94     1.98     8.25     0  03:00        1.97
  YS02001783           JUNCTION     0.51     1.50     7.64     0  02:42        1.47
  YS02001784           JUNCTION     0.53     1.86     7.93     0  02:42        1.42
  YS02001786           JUNCTION     0.46     2.11     8.14     0  02:42        1.26
  YS02001788           JUNCTION     0.39     2.18     8.15     0  02:42        1.13
  YS02001790           JUNCTION     0.50     1.96     7.60     0  02:41        1.29
  YS02001791           JUNCTION     0.45     2.72     8.19     0  02:41        1.27
  YS02001793           JUNCTION     0.59     2.79     7.63     0  04:43        1.80
  WSC                  OUTFALL      0.34     0.47     1.14     0  03:07        0.47
  JK-storage           STORAGE      2.57     5.80     6.60     0  02:07        5.80
  CC-storage           STORAGE      1.15     1.46     8.46     0  03:13        1.46
  XR-storage           STORAGE      6.54     7.72     5.72     0  03:00        7.72
  
  
  *******************
  Node Inflow Summary
  *******************
  
  -------------------------------------------------------------------------------------------------
                                  Maximum  Maximum                  Lateral       Total        Flow
                                  Lateral    Total  Time of Max      Inflow      Inflow     Balance
                                   Inflow   Inflow   Occurrence      Volume      Volume       Error
  Node                 Type           LPS      LPS  days hr:min    10^6 ltr    10^6 ltr     Percent
  -------------------------------------------------------------------------------------------------
  WS02001211           JUNCTION      7.35   391.87     0  03:16       0.207        10.1       0.397
  WS02001212           JUNCTION      0.00   396.41     0  03:16           0        10.1       0.244
  WS02001213           JUNCTION      0.00   400.35     0  03:15           0        10.1       0.276
  WS02003069           JUNCTION      0.32  1302.63     0  03:06     0.00902          19       0.174
  WS02003072           JUNCTION      0.00  1302.49     0  03:06           0        18.9       0.212
  WS02003073           JUNCTION      1.82  1305.47     0  03:07      0.0514          19       0.248
  WS02003060           JUNCTION     16.53  1302.45     0  03:05       0.466          19       0.163
  WS02003066           JUNCTION      0.00   936.49     0  03:04           0        8.54       0.046
  WS02003059           JUNCTION      0.00   405.21     0  03:15           0          10       0.398
  WS02003067           JUNCTION      0.00   934.67     0  03:04           0        8.55       0.098
  WS02004401           JUNCTION      0.00   947.32     0  03:03           0        8.74       0.190
  WS02004402           JUNCTION      0.00   947.05     0  03:03           0        8.72       0.184
  WS02004403           JUNCTION      0.00   947.10     0  03:03           0        8.71       0.173
  WS02004404           JUNCTION      0.16   947.77     0  03:03     0.00457         8.7       0.136
  WS02004406           JUNCTION      0.00   948.21     0  03:03           0        8.67       0.332
  WS02004409           JUNCTION      0.00   947.12     0  03:03           0        8.63       0.147
  WS02004410           JUNCTION      0.00   938.71     0  03:03           0        8.62       0.175
  WS02004411           JUNCTION      0.00   931.60     0  03:04           0        8.61       0.185
  WS02004412           JUNCTION      0.00   932.70     0  03:04           0        8.59       0.206
  WS02004413           JUNCTION      0.00   934.53     0  03:04           0        8.57       0.315
  WS02004405           JUNCTION      0.04   948.77     0  03:03     0.00107        8.68       0.201
  WS02006109           JUNCTION      1.23   924.52     0  03:03      0.0347        8.73       0.105
  WS02006110           JUNCTION      0.00   925.10     0  03:03           0        8.72       0.154
  WS02006111           JUNCTION      0.00   924.55     0  03:03           0        8.71       0.019
  WS02006112           JUNCTION     30.67   947.15     0  03:03      0.0853        8.79       0.276
  WS02006113           JUNCTION      0.00   924.65     0  03:03           0        8.71       0.056
  WS02006115           JUNCTION      0.00   947.02     0  03:03           0        8.76       0.162
  WS02006116           JUNCTION      0.00   947.18     0  03:03           0        8.75       0.138
  WS02006230           JUNCTION     10.28   532.77     0  07:20        0.29        6.29       0.128
  WS02006231           JUNCTION      0.00   522.75     0  07:20           0           6       0.013
  WS02006232           JUNCTION      0.00   522.32     0  07:20           0        6.01       0.127
  WS02006234           JUNCTION      0.00   522.41     0  07:20           0        6.01       0.002
  WS02006235           JUNCTION      0.00   523.19     0  07:20           0        6.11       0.079
  WS02006238           JUNCTION      0.00   327.56     0  07:20           0        2.66       0.035
  WS02006240           JUNCTION      0.00   338.22     0  06:02           0        2.57       0.061
  WS02006242           JUNCTION      0.00   347.31     0  06:01           0        2.53       0.074
  WS02006243           JUNCTION      0.00   355.80     0  06:01           0        2.51      -0.056
  WS02006245           JUNCTION      0.00   360.37     0  06:01           0         2.5       0.182
  WS02006247           JUNCTION      0.00   365.33     0  06:01           0        2.49       0.030
  WS02006248           JUNCTION      0.00   369.97     0  06:00           0        2.48      -0.075
  WS02006249           JUNCTION      0.00   426.17     0  07:19           0        2.52       0.103
  WS02006239           JUNCTION      0.00   329.83     0  06:02           0        2.61      -0.054
  WS02006251           JUNCTION      0.08   409.69     0  07:19     0.00217        2.56      -0.023
  WS02006252           JUNCTION      0.00   399.92     0  05:30           0        2.04       0.003
  WS02006253           JUNCTION      3.75   143.72     0  03:01      0.0103        0.52      -0.077
  WS02006256           JUNCTION      0.00   983.00     0  02:20           0        9.82       0.011
  WS02004138           JUNCTION      0.00   380.00     0  00:00           0        9.98       0.066
  WS02004139           JUNCTION      0.32   394.45     0  00:00     0.00905        9.98       0.456
  WS02004407           JUNCTION      0.00   948.16     0  03:03           0        8.64       0.060
  WS02006228           JUNCTION      0.00   923.02     0  03:03           0         8.7       0.075
  WS02006229           JUNCTION      0.00   955.21     0  03:02           0        8.71       0.116
  WS02006280           JUNCTION      0.00   680.17     0  03:02           0        2.43       0.010
  WS02006284           JUNCTION      0.10   679.04     0  03:02      0.0027        2.43       0.045
  WS02006287           JUNCTION      0.00   677.69     0  03:02           0        2.43       0.031
  WSF200               JUNCTION      0.00   937.00     0  03:04           0        8.53       0.040
  HS02004901           JUNCTION     37.63    37.63     0  03:01       0.103       0.103       1.741
  HS02004881           JUNCTION     14.26   140.56     0  03:01      0.0422       0.463       0.083
  HS02004876           JUNCTION     25.66   127.65     0  03:01      0.0814       0.422       0.130
  HS02004870           JUNCTION     26.26   103.61     0  03:01      0.0799        0.34       0.035
  HS02004862           JUNCTION     25.49    79.37     0  03:01      0.0888       0.261       0.068
  HS02004856           JUNCTION     19.64    55.40     0  03:01      0.0601       0.173       0.845
  HS02004852           JUNCTION      0.00    37.84     0  03:01           0       0.113       0.053
  HS02004848           JUNCTION     55.75    55.75     0  03:01       0.197       0.197       0.029
  HS02004842           JUNCTION      0.00    16.84     0  03:01           0       0.097      15.491
  HS02004837           JUNCTION     50.35    65.69     0  03:01       0.318       0.402       0.204
  HS02004830           JUNCTION      0.15    64.80     0  03:01     0.00423       0.392       0.316
  HS02004824           JUNCTION     65.57   128.43     0  03:01       0.251       0.642       0.086
  HS02004817           JUNCTION      0.60   124.47     0  03:01      0.0169       0.658       2.599
  HS02004807           JUNCTION     48.45   165.82     0  03:01       0.147       0.788       0.555
  HS02004802           JUNCTION      0.00   165.30     0  03:04           0       0.785       0.506
  HS02004799           JUNCTION     38.67   446.08     0  03:01       0.119        1.42       0.191
  HS02004792           JUNCTION    184.82   411.77     0  03:01        0.54         1.3       0.033
  HS02004788           JUNCTION     58.68   233.47     0  03:02       0.219       0.758       0.053
  HS02004785           JUNCTION      0.15   182.23     0  03:01     0.00423        0.54       0.094
  HS02004777           JUNCTION      0.03   185.04     0  03:01    0.000846       0.541       0.972
  HS02004770           JUNCTION    154.22   188.90     0  03:01       0.441       0.542       0.578
  HS02004480           JUNCTION      0.00   517.24     0  03:01           0        1.66       0.069
  HS02004479           JUNCTION      0.00    75.50     0  03:02           0       0.258       0.287
  HS02004478           JUNCTION      0.00   677.11     0  03:02           0        2.43       0.011
  YS02001745           JUNCTION    438.14   438.14     0  03:01        3.01        3.02       0.381
  YS02001748           JUNCTION      0.04   573.20     0  02:32     0.00127        3.01       0.724
  YS02001751           JUNCTION      0.01   442.85     0  03:01     0.00031        2.98       0.798
  YS02001754           JUNCTION      0.26   442.99     0  03:01     0.00733        2.96       0.842
  YS02001762           JUNCTION      0.00   326.58     0  03:18           0        2.29       0.930
  YS02001765           JUNCTION      0.00   326.08     0  03:18           0        2.29       1.077
  YS02001767           JUNCTION      0.54   326.81     0  03:18      0.0151        2.32       1.568
  YS02001770           JUNCTION    552.50   740.37     0  03:13        3.37        4.27       0.745
  YS02001774           JUNCTION      0.00   740.39     0  03:13           0        2.84       0.890
  YS02001779           JUNCTION      0.01   740.40     0  03:13    0.000141        2.81       0.552
  YS02001882           JUNCTION      0.00    41.03     0  02:43           0      0.0291       7.610
  YS02001884           JUNCTION      0.00    43.61     0  02:43           0      0.0667       9.516
  YS02001759           JUNCTION    536.49   620.92     0  02:43        3.11        4.47       0.515
  YS02001887           JUNCTION    679.97   679.98     0  03:01        3.57         3.6       0.226
  YS02001890           JUNCTION      0.00   680.38     0  03:01           0        3.55       0.253
  YS02001898           JUNCTION      0.00   518.59     0  03:00           0        3.45       0.069
  YS02001901           JUNCTION      0.00   518.62     0  03:00           0        3.45       0.202
  YS02001904           JUNCTION      0.00   518.47     0  03:00           0        3.45       0.164
  YS02001907           JUNCTION      0.00  1110.56     0  03:01           0        7.77       0.291
  YS02001910           JUNCTION      0.00   593.77     0  03:01           0        4.34       0.255
  YS02001915           JUNCTION    389.26   593.08     0  03:01        2.52        4.38       0.137
  YS02001918           JUNCTION      0.00   280.73     0  02:48           0        1.88       0.067
  YS02001619           JUNCTION    380.66   380.66     0  03:01        2.51        2.51       0.494
  YS02001629           JUNCTION      0.00   197.69     0  02:39           0        1.59       1.859
  YS02001641           JUNCTION      0.00   414.29     0  02:39           0        4.45       0.479
  YS02001644           JUNCTION    416.76  1566.55     0  03:12         2.9        11.8       0.229
  YS02001652           JUNCTION      0.00   500.76     0  03:01           0        2.62       0.919
  YS02001655           JUNCTION      0.15   500.99     0  03:01     0.00434        2.64       0.891
  YS02001920           JUNCTION      2.87   280.35     0  02:48      0.0809        1.87       0.143
  YS02001923           JUNCTION      0.04   269.03     0  02:49     0.00106        1.77       0.049
  YS02001926           JUNCTION      0.05   215.73     0  02:48     0.00147        1.76       0.194
  YS02001929           JUNCTION    189.18   189.18     0  03:01        1.75        1.75       0.039
  YS02001658           JUNCTION      0.00   599.81     0  02:28           0        2.68       0.779
  YS02001661           JUNCTION      0.00   674.85     0  02:43           0           3       0.157
  YS02001664           JUNCTION    492.63   492.63     0  03:01        2.67        2.98       0.214
  YS02001622           JUNCTION      0.00   380.91     0  03:01           0         2.5       1.283
  YS02001633           JUNCTION    423.29   423.29     0  03:01        2.99        4.52       0.716
  YS02001649           JUNCTION      0.00   870.81     0  02:40           0        6.77       0.549
  YS02001757           JUNCTION      0.00  1679.39     0  02:40           0        9.04       1.025
  YS02001895           JUNCTION      0.00   518.28     0  03:00           0        3.46       0.144
  YS02001625           JUNCTION      0.00   407.82     0  03:01           0        2.48       1.593
  YS02163301           JUNCTION      0.00   206.81     0  02:31           0        1.57       1.569
  YS02163601           JUNCTION      0.11   415.20     0  02:39      0.0031        4.48       0.676
  YS02164001           JUNCTION      0.00   415.42     0  02:39           0        4.46       0.459
  YS02001647           JUNCTION      0.00   846.67     0  03:16           0        5.96       0.480
  YSB1154              JUNCTION     44.76    44.76     0  03:01       0.144       0.144       1.018
  YSB6556              JUNCTION      0.00    43.29     0  03:01           0       0.145       0.869
  YSB1174              JUNCTION     38.10    38.10     0  03:01       0.106       0.107       1.222
  YSB1171              JUNCTION      0.00    76.92     0  03:01           0       0.257       2.527
  YS02006553           JUNCTION      0.00   707.56     0  03:46           0         6.7       0.214
  YS02006561           JUNCTION      0.00   981.29     0  03:19           0        9.93       0.008
  YS02006556           JUNCTION      0.00   708.38     0  03:46           0        6.71       0.147
  YS02006558           JUNCTION    587.14   982.40     0  03:18        3.28        9.96       0.044
  YS02001783           JUNCTION      0.00   981.24     0  03:19           0        9.93       0.020
  YS02001784           JUNCTION      1.06   982.41     0  03:18      0.0299        9.96       0.033
  YS02001786           JUNCTION      0.06   982.13     0  03:19     0.00159        9.96       0.034
  YS02001788           JUNCTION      0.07   982.41     0  03:19       0.002        9.95       0.022
  YS02001790           JUNCTION      0.15   982.76     0  03:18     0.00437        9.96       0.009
  YS02001791           JUNCTION      0.00   982.41     0  03:19           0        9.96       0.001
  YS02001793           JUNCTION      0.00   982.81     0  03:19           0        9.96      -0.015
  WSC                  OUTFALL       0.00  1308.20     0  03:07           0        18.9       0.000
  JK-storage           STORAGE       0.00   982.78     0  03:19           0        10.1      -9.421
  CC-storage           STORAGE       0.00  1679.50     0  02:40           0        6.23       1.057
  XR-storage           STORAGE    1024.87  1024.87     0  03:01        12.7        13.3      -0.003
  
  
  **********************
  Node Surcharge Summary
  **********************
  
  Surcharging occurs when water rises above the top of the highest conduit.
  ---------------------------------------------------------------------
                                               Max. Height   Min. Depth
                                   Hours       Above Crown    Below Rim
  Node                 Type      Surcharged         Meters       Meters
  ---------------------------------------------------------------------
  WS02004401           JUNCTION        0.29          0.267        1.393
  WS02004402           JUNCTION        0.32          0.252        1.488
  WS02004403           JUNCTION        0.32          0.227        1.803
  WS02004404           JUNCTION        0.54          0.270        2.510
  WS02004406           JUNCTION        0.40          0.181        2.269
  WS02004413           JUNCTION        0.12          0.023        2.177
  WS02004405           JUNCTION        0.46          0.238        2.562
  WS02006109           JUNCTION        2.72          0.883        0.937
  WS02006110           JUNCTION        1.31          0.582        1.268
  WS02006111           JUNCTION        0.08          0.119        1.751
  WS02006112           JUNCTION        1.61          0.598        1.082
  WS02006113           JUNCTION        0.09          0.167        1.763
  WS02006115           JUNCTION        0.22          0.250        2.000
  WS02006116           JUNCTION        0.24          0.240        2.050
  WS02006230           JUNCTION        0.69          0.843        0.727
  WS02006231           JUNCTION        1.06          0.852        0.678
  WS02006232           JUNCTION        2.51          0.961        0.519
  WS02006234           JUNCTION        1.53          0.839        0.401
  WS02006235           JUNCTION        1.85          0.857        0.433
  WS02006238           JUNCTION        1.98          0.864        0.566
  WS02006240           JUNCTION        1.20          0.713        0.677
  WS02006242           JUNCTION        1.24          0.713        0.107
  WS02006243           JUNCTION        0.99          0.578        0.192
  WS02006245           JUNCTION        0.90          0.506        0.344
  WS02006247           JUNCTION        0.89          0.490        0.270
  WS02006248           JUNCTION        0.71          0.380        0.000
  WS02006249           JUNCTION        0.75          0.390        0.000
  WS02006239           JUNCTION        1.37          0.774        0.516
  WS02006251           JUNCTION        0.18          0.252        0.928
  WS02006252           JUNCTION        0.86          0.435        0.665
  WS02006253           JUNCTION        0.25          0.306        2.174
  WS02006256           JUNCTION        6.92          2.050        0.000
  WS02006228           JUNCTION        2.64          1.044        1.156
  YS02001748           JUNCTION        5.22          0.575        0.615
  YS02001751           JUNCTION        5.37          0.708        0.492
  YS02001754           JUNCTION        5.57          0.806        0.344
  YS02001762           JUNCTION        5.75          1.049        0.101
  YS02001765           JUNCTION        5.72          1.005        0.095
  YS02001767           JUNCTION        5.70          0.956        0.074
  YS02001770           JUNCTION        5.68          0.911        0.009
  YS02001774           JUNCTION        5.74          0.992        0.058
  YS02001779           JUNCTION        5.56          0.680        0.000
  YS02001882           JUNCTION        1.09          0.637        0.193
  YS02001884           JUNCTION        1.10          0.678        0.192
  YS02001759           JUNCTION        5.78          1.093        0.117
  YS02001887           JUNCTION        1.18          0.764        0.186
  YS02001890           JUNCTION        1.20          0.760        0.000
  YS02001898           JUNCTION        1.05          0.535        0.205
  YS02001901           JUNCTION        1.14          0.677        0.193
  YS02001904           JUNCTION        1.12          0.637        0.213
  YS02001907           JUNCTION        1.88          0.950        0.000
  YS02001910           JUNCTION        1.25          0.794        0.306
  YS02001915           JUNCTION        1.08          0.609        0.391
  YS02001918           JUNCTION        0.92          0.309        0.501
  YS02001619           JUNCTION        5.37          0.610        0.000
  YS02001629           JUNCTION        5.38          0.470        0.000
  YS02001641           JUNCTION        5.73          0.936        0.164
  YS02001644           JUNCTION        5.73          0.920        0.000
  YS02001652           JUNCTION        5.61          0.967        0.163
  YS02001655           JUNCTION        5.40          0.916        0.284
  YS02001920           JUNCTION        0.95          0.400        0.740
  YS02001658           JUNCTION        5.25          0.729        0.571
  YS02001661           JUNCTION        0.12          0.909        0.481
  YS02001622           JUNCTION        5.40          0.620        0.000
  YS02001633           JUNCTION        5.71          0.928        0.132
  YS02001649           JUNCTION        5.76          1.050        0.000
  YS02001757           JUNCTION        5.86          1.196        0.014
  YS02001895           JUNCTION        1.07          0.567        0.183
  YS02001625           JUNCTION        5.64          0.780        0.000
  YS02163301           JUNCTION        5.69          0.884        0.146
  YS02163601           JUNCTION        5.75          0.993        0.087
  YS02164001           JUNCTION        5.72          0.924        0.176
  YS02001647           JUNCTION        5.62          0.799        0.101
  YS02006553           JUNCTION        1.95          0.970        0.220
  YS02006561           JUNCTION        0.97          0.292        0.858
  YS02006556           JUNCTION        1.48          0.894        0.456
  YS02006558           JUNCTION        1.44          0.879        0.521
  YS02001783           JUNCTION        1.19          0.696        0.904
  YS02001784           JUNCTION        1.16          1.058        0.432
  YS02001786           JUNCTION        1.10          1.307        0.123
  YS02001788           JUNCTION        1.05          1.377        0.103
  YS02001790           JUNCTION        2.04          1.157        0.000
  YS02001791           JUNCTION        2.16          1.920        0.000
  YS02001793           JUNCTION        2.46          1.794        0.806
  
  
  *********************
  Node Flooding Summary
  *********************
  
  Flooding refers to all water that overflows a node, whether it ponds or not.
  --------------------------------------------------------------------------
                                                             Total   Maximum
                                 Maximum   Time of Max       Flood    Ponded
                        Hours       Rate    Occurrence      Volume     Depth
  Node                 Flooded       LPS   days hr:min    10^6 ltr    Meters
  --------------------------------------------------------------------------
  WS02006248              0.05     30.47      0  03:03       0.003     0.000
  WS02006249              0.20    103.08      0  07:19       0.031     0.000
  WS02006256              3.80    834.84      0  03:02       6.278     0.000
  YS02001779              2.97    740.40      0  03:13       2.791     0.000
  YS02001890              0.34    162.44      0  03:01       0.085     0.000
  YS02001907              0.78    718.66      0  03:01       1.063     0.000
  YS02001619              0.01     23.90      0  02:32       0.000     0.000
  YS02001629              0.01     23.19      0  02:32       0.000     0.000
  YS02001644              4.86   1566.50      0  03:12      10.271     0.000
  YS02001622              0.01     13.78      0  02:32       0.000     0.000
  YS02001649              0.07     20.13      0  02:43       0.001     0.000
  YS02001625              1.38    407.65      0  03:01       0.855     0.000
  YS02001790              0.01    212.56      0  02:41       0.001     0.000
  YS02001791              0.01    189.69      0  02:41       0.000     0.000
  JK-storage              0.95    966.72      0  02:49       1.281     0.000
  XR-storage              3.43    644.86      0  03:01       2.557     0.000
  
  
  **********************
  Storage Volume Summary
  **********************
  
  --------------------------------------------------------------------------------------------------
                         Average     Avg  Evap Exfil       Maximum     Max    Time of Max    Maximum
                          Volume    Pcnt  Pcnt  Pcnt        Volume    Pcnt     Occurrence    Outflow
  Storage Unit           1000 m3    Full  Loss  Loss       1000 m3    Full    days hr:min        LPS
  --------------------------------------------------------------------------------------------------
  JK-storage               0.129      44     0     0         0.291     100       0  02:07     983.00
  CC-storage               3.197      20     0     0         4.073      26       0  03:13     399.92
  XR-storage               0.785      85     0     0         0.926     100       0  03:00     380.00
  
  
  ***********************
  Outfall Loading Summary
  ***********************
  
  ---------------------------------------------------------------------------------------------------------------------------------
                         Flow       Avg       Max       Total         Total         Total         Total         Total         Total
                         Freq      Flow      Flow      Volume           COD            SS            TN            TP         NH4-N
  Outfall Node           Pcnt       LPS       LPS    10^6 ltr            kg            kg            kg            kg            kg
  ---------------------------------------------------------------------------------------------------------------------------------
  WSC                  100.00    738.25   1308.20      18.913      2299.858      3972.208       147.418        17.360        89.221
  ---------------------------------------------------------------------------------------------------------------------------------
  System               100.00    738.25   1308.20      18.913      2299.858      3972.208       147.418        17.360        89.221
  
  
  ********************
  Link Flow Summary
  ********************
  
  -----------------------------------------------------------------------------
                                 Maximum  Time of Max   Maximum    Max/    Max/
                                  |Flow|   Occurrence   |Veloc|    Full    Full
  Link                 Type          LPS  days hr:min     m/sec    Flow   Depth
  -----------------------------------------------------------------------------
  WS02003066WSF200     CONDUIT    937.00     0  03:04      3.00    0.16    0.32
  WS02006287WS02006284 CONDUIT    678.94     0  03:02      2.38    0.31    0.39
  WS02006284WS02006280 CONDUIT    680.17     0  03:02      2.62    0.28    0.37
  WS02006280WS02006229 CONDUIT    687.30     0  03:02      4.06    0.15    0.53
  WS02006229WS02006228 CONDUIT    923.02     0  03:03      1.84    3.06    1.00
  WS02006256WS02006235 CONDUIT    259.49     0  00:18      3.67    2.75    1.00
  WS02006253WS02006251 CONDUIT    149.37     0  03:01      0.69    0.45    1.00
  WS02006252WS02006251 CONDUIT    400.57     0  07:19      3.19    1.47    1.00
  WS02006251WS02006249 CONDUIT    426.17     0  07:19      1.13    1.23    1.00
  WS02006249WS02006248 CONDUIT    369.97     0  06:00      1.19    2.03    1.00
  WS02006248WS02006247 CONDUIT    365.33     0  06:01      1.16    0.80    1.00
  WS02006247WS02006245 CONDUIT    360.37     0  06:01      1.13    2.86    1.00
  WS02006245WS02006243 CONDUIT    355.80     0  06:01      1.17    1.05    1.00
  WS02006243WS02006242 CONDUIT    347.31     0  06:01      1.05    0.74    1.00
  WS02006242WS02006240 CONDUIT    338.22     0  06:02      0.99    1.34    1.00
  WS02006240WS02006239 CONDUIT    329.83     0  06:02      1.03    1.04    1.00
  WS02006239WS02006238 CONDUIT    327.56     0  07:20      0.94    1.05    1.00
  WS02006238WS02006235 CONDUIT    328.27     0  07:20      0.93    0.73    1.00
  WS02006235WS02006234 CONDUIT    522.41     0  07:20      1.36    5.51    1.00
  WS02006234WS02006232 CONDUIT    522.32     0  07:20      1.36    1.06    1.00
  WS02006232WS02006231 CONDUIT    522.75     0  07:20      1.36    1.10    1.00
  WS02006231WS02006230 CONDUIT    522.49     0  07:20      1.36    7.93    1.00
  WS02006230WS02006229 CONDUIT    534.88     0  07:20      1.39   11.90    1.00
  WS02006228WS02006109 CONDUIT    923.29     0  03:03      1.84    4.03    1.00
  WS02006116WS02004401 CONDUIT    947.32     0  03:03      1.21    1.31    1.00
  WS02006115WS02006116 CONDUIT    947.18     0  03:03      1.21    1.22    1.00
  WS02006113WS02006111 CONDUIT    924.55     0  03:03      2.61    1.11    1.00
  WS02006112WS02006115 CONDUIT    947.02     0  03:03      1.21    0.56    1.00
  WS02006111WS02006112 CONDUIT    924.50     0  03:03      1.84    0.44    1.00
  WS02006110WS02006113 CONDUIT    924.65     0  03:03      1.84    0.84    1.00
  WS02006109WS02006110 CONDUIT    925.10     0  03:03      1.84    1.78    1.00
  WS02004411WS02004412 CONDUIT    932.70     0  03:04      1.24    1.32    0.92
  WS02004401WS02004402 CONDUIT    947.05     0  03:03      1.21    1.14    1.00
  WS02004413WS02003067 CONDUIT    934.67     0  03:04      1.54    0.40    0.72
  WS02004412WS02004413 CONDUIT    934.53     0  03:04      1.21    0.63    0.95
  WS02004410WS02004411 CONDUIT    931.60     0  03:04      1.23    1.27    0.94
  WS02004409WS02004410 CONDUIT    938.71     0  03:03      1.22    1.21    0.95
  WS02004407WS02004409 CONDUIT    947.12     0  03:03      1.70    0.34    0.68
  WS02004406WS02004407 CONDUIT    948.16     0  03:03      1.62    0.42    0.70
  WS02004405WS02004406 CONDUIT    948.21     0  03:03      1.21    1.87    1.00
  WS02004404WS02004405 CONDUIT    948.74     0  03:03      1.21    9.30    1.00
  WS02004403WS02004404 CONDUIT    947.61     0  03:03      1.21    0.68    1.00
  WS02004402WS02004403 CONDUIT    947.10     0  03:03      1.21    1.36    1.00
  WS02004139WS02001211 CONDUIT    384.52     0  03:16      0.90    0.49    0.64
  WS02004138WS02004139 CONDUIT    394.13     0  00:00      3.62    0.08    0.46
  WS02003067WS02003066 CONDUIT    936.49     0  03:04      1.65    0.30    0.50
  WS02001213WS02003059 CONDUIT    405.21     0  03:15      0.89    0.67    0.86
  WS02001212WS02001213 CONDUIT    400.35     0  03:15      1.32    0.62    0.55
  WS02001211WS02001212 CONDUIT    396.41     0  03:16      0.78    0.30    0.71
  WS02003072WS02003073 CONDUIT   1303.65     0  03:07      1.94    2.82    0.57
  WS02003069WS02003072 CONDUIT   1302.49     0  03:06      1.80    0.63    0.61
  WS02003060WS02003069 CONDUIT   1302.31     0  03:06      2.02    0.51    0.56
  WS02003059WS02003060 CONDUIT    411.20     0  03:16      0.95    0.27    0.76
  HS02004901HS02004770 CONDUIT     37.25     0  03:01      0.10    0.14    0.53
  HS02004876HS02004881 CONDUIT    127.64     0  03:01      1.21    1.36    0.15
  HS02004870HS02004876 CONDUIT    103.11     0  03:01      0.82    0.07    0.18
  HS02004842HS02004848 CONDUIT     16.84     0  03:01      0.07    0.01    0.33
  HS02004837HS02004842 CONDUIT     17.92     0  03:03      0.42    0.01    0.35
  HS02004830HS02004837 CONDUIT     64.65     0  03:01      0.67    0.06    0.14
  HS02004824HS02004830 CONDUIT     64.12     0  03:01      0.62    0.08    0.16
  HS02004817HS02004824 CONDUIT    123.87     0  03:01      0.31    0.06    0.58
  HS02004770HS02004777 CONDUIT    185.01     0  03:01      0.49    0.34    0.54
  HS02004799HS02004480 CONDUIT    444.38     0  03:01      1.07    0.56    0.60
  HS02004792HS02004799 CONDUIT    408.49     0  03:01      1.20    0.25    0.49
  HS02004788HS02004792 CONDUIT    232.97     0  03:02      1.28    0.15    0.26
  HS02004785HS02004788 CONDUIT    181.79     0  03:02      0.91    1.37    0.29
  HS02004777HS02004785 CONDUIT    182.08     0  03:01      0.57    0.22    0.45
  HS02004480HS02004478 CONDUIT    517.39     0  03:01      1.55    2.18    0.48
  HS02004479HS02004480 CONDUIT     77.35     0  03:02      0.30    0.07    0.57
  HS02004862HS02004870 CONDUIT     79.03     0  03:01      0.80    0.09    0.14
  HS02004848HS02004852 CONDUIT     37.84     0  03:01      0.53    0.04    0.10
  HS02004856HS02004862 CONDUIT     54.76     0  03:01      0.59    0.05    0.13
  HS02004852HS02004856 CONDUIT     37.75     0  03:02      0.34    0.04    0.16
  HS02004802HS02004478 CONDUIT    170.18     0  03:04      0.54    0.15    0.48
  HS02004478WS02006287 CONDUIT    677.69     0  03:02      2.11    0.19    0.36
  HS02004817HS02004807 CONDUIT    128.13     0  03:04      0.25    0.08    0.75
  HS02004807HS02004802 CONDUIT    165.30     0  03:04      0.46    0.32    0.53
  YS02001759YS02001757 CONDUIT    620.42     0  02:43      0.79    0.44    1.00
  YS02001762YS02001759 CONDUIT    326.58     0  03:18      0.42    0.38    1.00
  YS02001765YS02001762 CONDUIT    326.08     0  03:18      0.42    0.31    1.00
  YS02001770YS02001767 CONDUIT    326.51     0  03:18      0.42    1.29    1.00
  YS02001774YS02001770 CONDUIT    740.39     0  03:13      0.94    0.47    1.00
  YS02001779YS02001774 CONDUIT    740.40     0  03:13      0.94    0.37    1.00
  YS02001649YS02001757 CONDUIT    873.73     0  02:40      1.11    0.53    1.00
  YS02001767YS02001765 CONDUIT    326.27     0  03:18      0.42    0.41    1.00
  YS02006561YS02001783 CONDUIT    981.24     0  03:19      2.16    0.51    1.00
  YS02001783YS02001784 CONDUIT    981.35     0  03:18      1.95    1.35    1.00
  YS02001784YS02001785 CONDUIT    982.08     0  03:19      1.95    2.29    1.00
  YS02001788YS02001790 CONDUIT    982.61     0  03:18      2.43    0.72    1.00
  YS02001790YS02001791 CONDUIT    982.41     0  03:19      2.97    1.07    1.00
  YS02001791YS02001793 CONDUIT    982.81     0  03:19      5.89    0.42    1.00
  YS02001910YS02001907 CONDUIT    593.16     0  03:01      0.76    0.33    1.00
  YS02001786YS02001788 CONDUIT    982.34     0  03:19      2.30    1.89    1.00
  YS02001915YS02001910 CONDUIT    593.77     0  03:01      0.76    0.29    1.00
  YS02001918YS02001915 CONDUIT    282.38     0  02:48      0.44    0.16    1.00
  YS02001923YS02001920 CONDUIT    277.48     0  02:48      0.75    0.12    1.00
  YS02001926YS02001923 CONDUIT    268.99     0  02:49      0.86    0.38    0.96
  YS02001929YS02001926 CONDUIT    215.68     0  02:48      0.92    0.10    0.85
  YS02001920YS02001918 CONDUIT    280.73     0  02:48      0.72    0.27    1.00
  YS02001629YS02163301 CONDUIT    206.81     0  02:31      0.26    0.25    1.00
  YS02001619YS02001622 CONDUIT    380.91     0  03:01      0.59    0.56    1.00
  YS02001622YS02001625 CONDUIT    380.98     0  03:01      0.49    0.20    1.00
  YS02001625YS02001629 CONDUIT    197.69     0  02:39      0.25    0.09    1.00
  YS02163301YS02001633 CONDUIT    208.57     0  02:31      0.27    0.20    1.00
  YS02163601YS02164001 CONDUIT    415.42     0  02:39      0.53    0.37    1.00
  YS02164001YS02001641 CONDUIT    414.29     0  02:39      0.53    0.57    1.00
  YS02001641YS02001644 CONDUIT    414.56     0  02:39      0.53    1.34    1.00
  YS02001647YS02001649 CONDUIT    846.67     0  03:16      1.08    0.45    1.00
  YS02006553YS02006556 CONDUIT    708.38     0  03:46      0.90    0.61    1.00
  YS02006556YS02006558 CONDUIT    709.48     0  03:46      0.90    0.56    1.00
  YSB6556YSB1171       CONDUIT     42.85     0  03:02      0.13    0.04    0.82
  YS02001907YS02006553 CONDUIT    707.56     0  03:46      0.79    0.83    1.00
  YS02006558YS02006561 CONDUIT    981.29     0  03:19      3.49    2.17    1.00
  YS02001633YS02163601 CONDUIT    415.09     0  02:39      0.53    0.44    1.00
  YS02001644YS02001647 CONDUIT    846.67     0  03:16      1.08    0.50    1.00
  YS02001745YS02001748 CONDUIT    573.16     0  02:32      1.45    0.22    0.98
  YS02001748YS02001751 CONDUIT    442.84     0  03:01      1.03    0.22    1.00
  YS02001751YS02001754 CONDUIT    442.73     0  03:01      0.88    0.21    1.00
  YS02001754YS02001757 CONDUIT    442.97     0  03:01      0.56    0.18    1.00
  YS02001882YS02001884 CONDUIT     41.03     0  02:43      0.12    0.05    1.00
  YS02001884YS02001887 CONDUIT     43.61     0  02:43      0.08    0.06    1.00
  YS02001890YS02001895 CONDUIT    518.28     0  03:00      0.66    0.24    1.00
  YS02001895YS02001898 CONDUIT    518.59     0  03:00      0.66    0.90    1.00
  YS02001898YS02001901 CONDUIT    518.62     0  03:00      0.66    0.33    1.00
  YS02001901YS02001904 CONDUIT    518.47     0  03:00      0.66    0.80    1.00
  YS02001904YS02001907 CONDUIT    518.56     0  03:00      0.66    0.18    1.00
  YS02001887YS02001890 CONDUIT    680.38     0  03:01      0.87    1.16    1.00
  YS02001652YS02001649 CONDUIT    501.51     0  03:01      0.64    0.25    1.00
  YS02001655YS02001652 CONDUIT    500.76     0  03:01      0.94    0.24    1.00
  YS02001658YS02001655 CONDUIT    500.83     0  03:01      1.18    0.21    1.00
  YS02001661YS02001658 CONDUIT    599.81     0  02:28      1.52    0.24    1.00
  YS02001664YS02001661 CONDUIT    674.85     0  02:43      1.43    0.21    0.77
  YSB1154YSB6556       CONDUIT     43.29     0  03:01      0.18    0.08    0.73
  YSB1174YSB1171       CONDUIT     36.64     0  03:01      0.11    0.06    0.85
  YSB1171HS02004479    CONDUIT     75.50     0  03:02      0.54    0.05    0.68
  HS02004881HS02006253 CONDUIT    140.48     0  03:01      2.49    0.03    0.54
  YS02001793JiankangQianchi CONDUIT    982.78     0  03:19     16.42    0.08    1.00
  YS02001757CaochengTiaoxuchi CONDUIT   1679.50     0  02:40      2.17    0.74    1.00
  WSF200WS02003060     CONDUIT    938.79     0  03:04      1.95    0.21    0.44
  1                    CONDUIT   1308.20     0  03:07      3.57    0.46    0.47
  CC-Pump-1            PUMP       200.00     0  04:30              1.00
  CC-Pump-2            PUMP       199.92     0  05:30              1.00
  JK-Pump-1            PUMP       300.00     0  02:20              1.00
  JK-Pump-2            PUMP       683.00     0  02:20              1.00
  XR-Pump-1            PUMP        95.00     0  00:00              1.00
  XR-Pump-2            PUMP        95.00     0  00:00              1.00
  XR-Pump-3            PUMP        95.00     0  00:00              1.00
  XR-Pump-4            PUMP        95.00     0  00:00              1.00
  
  
  ***************************
  Flow Classification Summary
  ***************************
  
  -------------------------------------------------------------------------------------
                      Adjusted    ---------- Fraction of Time in Flow Class ---------- 
                       /Actual         Up    Down  Sub   Sup   Up    Down  Norm  Inlet 
  Conduit               Length    Dry  Dry   Dry   Crit  Crit  Crit  Crit  Ltd   Ctrl  
  -------------------------------------------------------------------------------------
  WS02003066WSF200        1.00   0.01  0.03  0.00  0.00  0.97  0.00  0.00  0.66  0.00
  WS02006287WS02006284    1.00   0.03  0.02  0.00  0.66  0.29  0.00  0.00  0.65  0.00
  WS02006284WS02006280    1.00   0.04  0.00  0.00  0.00  0.00  0.00  0.96  0.00  0.00
  WS02006280WS02006229    1.00   0.04  0.00  0.00  0.01  0.01  0.00  0.94  0.00  0.00
  WS02006229WS02006228    1.00   0.00  0.00  0.00  1.00  0.00  0.00  0.00  0.00  0.00
  WS02006256WS02006235    1.00   0.01  0.00  0.00  0.99  0.00  0.00  0.00  0.00  0.00
  WS02006253WS02006251    1.00   0.02  0.02  0.00  0.96  0.00  0.01  0.00  0.00  0.00
  WS02006252WS02006251    1.00   0.21  0.01  0.00  0.04  0.00  0.74  0.00  0.00  0.00
  WS02006251WS02006249    1.00   0.00  0.00  0.00  1.00  0.00  0.00  0.00  0.33  0.00
  WS02006249WS02006248    1.00   0.00  0.00  0.00  0.86  0.00  0.13  0.00  0.00  0.00
  WS02006248WS02006247    1.00   0.01  0.00  0.00  0.99  0.00  0.00  0.01  0.22  0.00
  WS02006247WS02006245    1.00   0.01  0.00  0.00  0.98  0.00  0.00  0.01  0.00  0.00
  WS02006245WS02006243    1.00   0.01  0.00  0.00  0.95  0.00  0.00  0.05  0.01  0.00
  WS02006243WS02006242    1.00   0.01  0.00  0.00  0.99  0.00  0.00  0.00  0.27  0.00
  WS02006242WS02006240    1.00   0.01  0.00  0.00  0.99  0.00  0.00  0.00  0.00  0.00
  WS02006240WS02006239    1.00   0.01  0.00  0.00  0.95  0.00  0.00  0.04  0.01  0.00
  WS02006239WS02006238    1.00   0.01  0.00  0.00  0.99  0.00  0.00  0.00  0.10  0.00
  WS02006238WS02006235    1.00   0.01  0.00  0.00  0.99  0.00  0.00  0.00  0.00  0.00
  WS02006235WS02006234    1.00   0.01  0.00  0.00  0.95  0.00  0.04  0.00  0.00  0.00
  WS02006234WS02006232    1.00   0.01  0.00  0.00  0.99  0.00  0.00  0.00  0.06  0.00
  WS02006232WS02006231    1.00   0.01  0.00  0.00  0.99  0.00  0.00  0.00  0.00  0.00
  WS02006231WS02006230    1.00   0.01  0.00  0.00  0.66  0.00  0.33  0.00  0.00  0.00
  WS02006230WS02006229    1.00   0.00  0.00  0.00  0.99  0.00  0.00  0.01  0.00  0.00
  WS02006228WS02006109    1.00   0.00  0.00  0.00  1.00  0.00  0.00  0.00  0.00  0.00
  WS02006116WS02004401    1.00   0.02  0.00  0.00  0.98  0.00  0.00  0.00  0.00  0.00
  WS02006115WS02006116    1.00   0.02  0.00  0.00  0.98  0.00  0.00  0.00  0.00  0.00
  WS02006113WS02006111    1.00   0.01  0.00  0.00  0.03  0.96  0.00  0.00  0.21  0.00
  WS02006112WS02006115    1.00   0.01  0.00  0.00  0.98  0.00  0.00  0.00  0.00  0.00
  WS02006111WS02006112    1.00   0.01  0.00  0.00  0.98  0.00  0.00  0.00  0.90  0.00
  WS02006110WS02006113    1.00   0.00  0.01  0.00  0.99  0.00  0.00  0.00  0.00  0.00
  WS02006109WS02006110    1.00   0.00  0.00  0.00  0.99  0.00  0.00  0.00  0.00  0.00
  WS02004411WS02004412    1.00   0.02  0.00  0.00  0.98  0.00  0.00  0.00  0.00  0.00
  WS02004401WS02004402    1.00   0.02  0.00  0.00  0.98  0.00  0.00  0.00  0.00  0.00
  WS02004413WS02003067    1.00   0.03  0.00  0.00  0.00  0.00  0.97  0.00  0.00  0.00
  WS02004412WS02004413    1.00   0.03  0.00  0.00  0.97  0.00  0.00  0.00  0.00  0.00
  WS02004410WS02004411    1.00   0.02  0.00  0.00  0.98  0.00  0.00  0.00  0.00  0.00
  WS02004409WS02004410    1.00   0.02  0.00  0.00  0.98  0.00  0.00  0.00  0.00  0.00
  WS02004407WS02004409    1.00   0.02  0.00  0.00  0.97  0.00  0.00  0.00  0.93  0.00
  WS02004406WS02004407    1.00   0.00  0.02  0.00  0.98  0.00  0.00  0.00  0.00  0.00
  WS02004405WS02004406    1.00   0.00  0.00  0.00  1.00  0.00  0.00  0.00  0.02  0.00
  WS02004404WS02004405    1.00   0.00  0.00  0.00  1.00  0.00  0.00  0.00  0.00  0.00
  WS02004403WS02004404    1.00   0.00  0.02  0.00  0.98  0.00  0.00  0.00  0.00  0.00
  WS02004402WS02004403    1.00   0.02  0.00  0.00  0.98  0.00  0.00  0.00  0.00  0.00
  WS02004139WS02001211    1.00   0.00  0.00  0.00  1.00  0.00  0.00  0.00  0.00  0.00
  WS02004138WS02004139    1.00   0.00  0.00  0.00  1.00  0.00  0.00  0.00  1.00  0.00
  WS02003067WS02003066    1.00   0.03  0.00  0.00  0.97  0.00  0.00  0.00  0.00  0.00
  WS02001213WS02003059    1.00   0.00  0.00  0.00  1.00  0.00  0.00  0.00  0.00  0.00
  WS02001212WS02001213    1.00   0.00  0.00  0.00  0.91  0.00  0.08  0.00  0.00  0.00
  WS02001211WS02001212    1.00   0.00  0.00  0.00  1.00  0.00  0.00  0.00  0.00  0.00
  WS02003072WS02003073    1.00   0.00  0.00  0.00  0.00  0.00  0.00  1.00  0.00  0.00
  WS02003069WS02003072    1.00   0.00  0.00  0.00  1.00  0.00  0.00  0.00  0.11  0.00
  WS02003060WS02003069    1.00   0.00  0.00  0.00  0.99  0.01  0.00  0.00  0.08  0.00
  WS02003059WS02003060    1.00   0.00  0.00  0.00  1.00  0.00  0.00  0.00  0.00  0.00
  HS02004901HS02004770    1.00   0.04  0.00  0.00  0.96  0.00  0.00  0.00  0.00  0.00
  HS02004876HS02004881    1.00   0.01  0.00  0.00  0.91  0.09  0.00  0.00  0.00  0.00
  HS02004870HS02004876    1.00   0.00  0.00  0.00  1.00  0.00  0.00  0.00  0.95  0.00
  HS02004842HS02004848    1.00   0.00  0.04  0.00  0.96  0.00  0.00  0.00  0.54  0.00
  HS02004837HS02004842    1.00   0.00  0.00  0.00  1.00  0.00  0.00  0.00  0.11  0.00
  HS02004830HS02004837    1.00   0.00  0.00  0.00  1.00  0.00  0.00  0.00  0.99  0.00
  HS02004824HS02004830    1.00   0.00  0.00  0.00  1.00  0.00  0.00  0.00  0.01  0.00
  HS02004817HS02004824    1.00   0.00  0.00  0.00  1.00  0.00  0.00  0.00  0.97  0.00
  HS02004770HS02004777    1.00   0.00  0.04  0.00  0.96  0.00  0.00  0.00  0.03  0.00
  HS02004799HS02004480    1.00   0.00  0.01  0.00  0.95  0.00  0.04  0.00  0.00  0.00
  HS02004792HS02004799    1.00   0.00  0.00  0.00  1.00  0.00  0.00  0.00  0.98  0.00
  HS02004788HS02004792    1.00   0.00  0.00  0.00  1.00  0.00  0.00  0.00  0.98  0.00
  HS02004785HS02004788    1.00   0.00  0.00  0.00  1.00  0.00  0.00  0.00  0.00  0.00
  HS02004777HS02004785    1.00   0.00  0.00  0.00  1.00  0.00  0.00  0.00  0.12  0.00
  HS02004480HS02004478    1.00   0.04  0.00  0.00  0.71  0.00  0.00  0.25  0.00  0.00
  HS02004479HS02004480    1.00   0.01  0.00  0.00  0.99  0.00  0.00  0.00  0.12  0.00
  HS02004862HS02004870    1.00   0.00  0.00  0.00  1.00  0.00  0.00  0.00  0.04  0.00
  HS02004848HS02004852    1.00   0.04  0.00  0.00  0.96  0.00  0.00  0.00  0.64  0.00
  HS02004856HS02004862    1.00   0.00  0.05  0.00  0.95  0.00  0.00  0.00  0.83  0.00
  HS02004852HS02004856    1.00   0.04  0.00  0.00  0.96  0.00  0.00  0.00  0.80  0.00
  HS02004802HS02004478    1.00   0.04  0.00  0.00  0.96  0.00  0.00  0.00  0.02  0.00
  HS02004478WS02006287    1.00   0.05  0.00  0.00  0.76  0.19  0.00  0.00  0.65  0.00
  HS02004817HS02004807    1.00   0.00  0.04  0.00  0.96  0.00  0.00  0.00  0.01  0.00
  HS02004807HS02004802    1.00   0.04  0.00  0.00  0.95  0.00  0.00  0.00  0.00  0.00
  YS02001759YS02001757    1.00   0.00  0.00  0.00  1.00  0.00  0.00  0.00  0.16  0.00
  YS02001762YS02001759    1.00   0.00  0.00  0.00  1.00  0.00  0.00  0.00  0.03  0.00
  YS02001765YS02001762    1.00   0.00  0.00  0.00  1.00  0.00  0.00  0.00  0.14  0.00
  YS02001770YS02001767    1.00   0.00  0.00  0.00  1.00  0.00  0.00  0.00  0.00  0.00
  YS02001774YS02001770    1.00   0.00  0.04  0.00  0.96  0.00  0.00  0.00  0.03  0.00
  YS02001779YS02001774    1.00   0.00  0.00  0.00  1.00  0.00  0.00  0.00  0.19  0.00
  YS02001649YS02001757    1.00   0.00  0.00  0.00  1.00  0.00  0.00  0.00  0.16  0.00
  YS02001767YS02001765    1.00   0.00  0.00  0.00  1.00  0.00  0.00  0.00  0.00  0.00
  YS02006561YS02001783    1.00   0.06  0.00  0.00  0.30  0.64  0.00  0.00  0.48  0.00
  YS02001783YS02001784    1.00   0.00  0.06  0.00  0.94  0.00  0.00  0.00  0.00  0.00
  YS02001784YS02001785    1.00   0.00  0.00  0.00  1.00  0.00  0.00  0.00  0.18  0.00
  YS02001788YS02001790    1.00   0.00  0.00  0.00  0.35  0.65  0.00  0.00  0.36  0.00
  YS02001790YS02001791    1.00   0.00  0.00  0.00  0.30  0.70  0.00  0.00  0.43  0.00
  YS02001791YS02001793    1.00   0.00  0.00  0.00  0.33  0.67  0.00  0.00  0.03  0.00
  YS02001910YS02001907    1.00   0.00  0.00  0.00  0.99  0.00  0.00  0.01  0.12  0.00
  YS02001786YS02001788    1.00   0.00  0.00  0.00  0.33  0.67  0.00  0.00  0.00  0.00
  YS02001915YS02001910    1.00   0.00  0.00  0.00  0.99  0.01  0.00  0.00  0.16  0.00
  YS02001918YS02001915    1.00   0.00  0.00  0.00  0.99  0.00  0.00  0.00  0.54  0.00
  YS02001923YS02001920    1.00   0.00  0.00  0.00  1.00  0.00  0.00  0.00  0.82  0.00
  YS02001926YS02001923    1.00   0.00  0.03  0.00  0.12  0.00  0.86  0.00  0.00  0.00
  YS02001929YS02001926    1.00   0.00  0.04  0.00  0.96  0.00  0.00  0.00  0.74  0.00
  YS02001920YS02001918    1.00   0.00  0.00  0.00  1.00  0.00  0.00  0.00  0.00  0.00
  YS02001629YS02163301    1.00   0.05  0.00  0.00  0.95  0.00  0.00  0.00  0.00  0.00
  YS02001619YS02001622    1.00   0.04  0.00  0.00  0.96  0.00  0.00  0.00  0.00  0.00
  YS02001622YS02001625    1.00   0.04  0.00  0.00  0.96  0.00  0.00  0.00  0.05  0.00
  YS02001625YS02001629    1.00   0.04  0.02  0.00  0.92  0.00  0.02  0.00  0.00  0.00
  YS02163301YS02001633    1.00   0.00  0.05  0.00  0.95  0.00  0.00  0.00  0.00  0.00
  YS02163601YS02164001    1.00   0.00  0.03  0.00  0.97  0.00  0.00  0.00  0.00  0.00
  YS02164001YS02001641    1.00   0.00  0.03  0.00  0.97  0.00  0.00  0.00  0.06  0.00
  YS02001641YS02001644    1.00   0.00  0.00  0.00  1.00  0.00  0.00  0.00  0.00  0.00
  YS02001647YS02001649    1.00   0.00  0.05  0.00  0.95  0.00  0.00  0.00  0.01  0.00
  YS02006553YS02006556    1.00   0.00  0.00  0.00  1.00  0.00  0.00  0.00  0.03  0.00
  YS02006556YS02006558    1.00   0.00  0.00  0.00  1.00  0.00  0.00  0.00  0.00  0.00
  YSB6556YSB1171          1.00   0.01  0.03  0.00  0.96  0.00  0.00  0.00  0.00  0.00
  YS02001907YS02006553    1.00   0.00  0.01  0.00  0.99  0.00  0.00  0.00  0.00  0.00
  YS02006558YS02006561    1.00   0.06  0.00  0.00  0.11  0.83  0.00  0.00  0.46  0.00
  YS02001633YS02163601    1.00   0.00  0.00  0.00  1.00  0.00  0.00  0.00  0.15  0.00
  YS02001644YS02001647    1.00   0.00  0.05  0.00  0.95  0.00  0.00  0.00  0.00  0.00
  YS02001745YS02001748    1.00   0.00  0.00  0.00  0.90  0.01  0.00  0.10  0.04  0.00
  YS02001748YS02001751    1.00   0.00  0.00  0.00  0.97  0.03  0.00  0.00  0.15  0.00
  YS02001751YS02001754    1.00   0.00  0.00  0.00  0.94  0.00  0.00  0.06  0.02  0.00
  YS02001754YS02001757    1.00   0.00  0.00  0.00  1.00  0.00  0.00  0.00  0.18  0.00
  YS02001882YS02001884    1.00   0.05  0.00  0.00  0.95  0.00  0.00  0.00  0.00  0.00
  YS02001884YS02001887    1.00   0.02  0.02  0.00  0.96  0.00  0.00  0.00  0.00  0.00
  YS02001890YS02001895    1.00   0.00  0.05  0.00  0.95  0.00  0.00  0.00  0.00  0.00
  YS02001895YS02001898    1.00   0.05  0.00  0.00  0.94  0.00  0.01  0.00  0.00  0.00
  YS02001898YS02001901    1.00   0.05  0.00  0.00  0.95  0.00  0.00  0.00  0.01  0.00
  YS02001901YS02001904    1.00   0.05  0.00  0.00  0.95  0.00  0.00  0.00  0.00  0.00
  YS02001904YS02001907    1.00   0.00  0.05  0.00  0.95  0.00  0.00  0.00  0.00  0.00
  YS02001887YS02001890    1.00   0.00  0.00  0.00  0.99  0.00  0.01  0.00  0.00  0.00
  YS02001652YS02001649    1.00   0.00  0.00  0.00  1.00  0.00  0.00  0.00  0.17  0.00
  YS02001655YS02001652    1.00   0.00  0.00  0.00  0.94  0.00  0.00  0.06  0.02  0.00
  YS02001658YS02001655    1.00   0.00  0.04  0.00  0.92  0.03  0.00  0.00  0.10  0.00
  YS02001661YS02001658    1.00   0.04  0.00  0.00  0.90  0.06  0.00  0.00  0.11  0.00
  YS02001664YS02001661    1.00   0.04  0.00  0.00  0.91  0.05  0.00  0.00  0.20  0.00
  YSB1154YSB6556          1.00   0.04  0.00  0.00  0.96  0.00  0.00  0.00  0.02  0.00
  YSB1174YSB1171          1.00   0.02  0.01  0.00  0.97  0.00  0.00  0.00  0.00  0.00
  YSB1171HS02004479       1.00   0.01  0.00  0.00  0.98  0.00  0.00  0.01  0.10  0.00
  HS02004881HS02006253    1.00   0.02  0.00  0.00  0.52  0.02  0.00  0.44  0.33  0.00
  YS02001793JiankangQianchi    1.00   0.00  0.00  0.00  0.66  0.34  0.00  0.00  0.42  0.00
  YS02001757CaochengTiaoxuchi    1.00   0.00  0.08  0.00  0.92  0.00  0.00  0.00  0.00  0.00
  WSF200WS02003060        1.00   0.00  0.01  0.00  0.99  0.01  0.00  0.00  0.55  0.00
  1                       1.00   0.00  0.00  0.00  0.00  1.00  0.00  0.00  0.48  0.00
  
  
  *************************
  Conduit Surcharge Summary
  *************************
  
  ----------------------------------------------------------------------------
                                                           Hours        Hours 
                         --------- Hours Full --------   Above Full   Capacity
  Conduit                Both Ends  Upstream  Dnstream   Normal Flow   Limited
  ----------------------------------------------------------------------------
  WS02006229WS02006228        2.64      2.79      2.64      4.24         2.64
  WS02006256WS02006235        5.47      5.47      6.92      4.36         0.01
  WS02006253WS02006251        0.66      0.66      0.71      0.01         0.01
  WS02006252WS02006251        0.34      0.34      0.86      0.64         0.01
  WS02006251WS02006249        0.68      0.68      0.75      0.18         0.09
  WS02006249WS02006248        0.71      0.71      0.75      1.66         0.01
  WS02006248WS02006247        0.75      0.75      0.89      0.01         0.01
  WS02006247WS02006245        0.90      0.91      0.90      2.25         0.79
  WS02006245WS02006243        0.93      0.93      0.99      0.03         0.05
  WS02006243WS02006242        1.01      1.01      1.24      0.01         0.01
  WS02006242WS02006240        1.20      1.20      1.37      0.64         0.01
  WS02006240WS02006239        1.22      1.22      1.37      0.20         0.14
  WS02006239WS02006238        1.67      1.67      1.98      0.22         0.18
  WS02006238WS02006235        1.96      1.96      2.20      0.01         0.01
  WS02006235WS02006234        1.53      1.53      1.85      5.41         0.01
  WS02006234WS02006232        1.72      1.72      2.51      0.34         0.35
  WS02006232WS02006231        1.06      1.06      2.51      0.45         0.01
[...]
  YS02001770YS02001767        5.69      5.69      5.70      0.62         0.55
  YS02001774YS02001770        5.68      5.68      5.74      0.01         0.01
  YS02001779YS02001774        5.56      5.56      5.74      0.01         0.01
  YS02001649YS02001757        5.76      5.76      5.86      0.01         0.01
  YS02001767YS02001765        5.70      5.70      5.72      0.01         0.01
  YS02006561YS02001783        0.97      0.97      1.19      0.01         0.01
  YS02001783YS02001784        1.16      1.19      1.16      1.57         1.15
  YS02001784YS02001785        1.10      1.16      1.10      2.51         1.10
  YS02001788YS02001790        1.05      1.05      2.04      0.01         0.01
  YS02001790YS02001791        2.03      2.04      2.16      1.08         1.07
  YS02001791YS02001793        2.16      2.16      2.57      0.01         0.01
  YS02001910YS02001907        1.25      1.25      1.88      0.01         0.01
  YS02001786YS02001788        1.05      1.10      1.05      2.11         1.04
  YS02001915YS02001910        1.08      1.08      1.25      0.01         0.01
  YS02001918YS02001915        0.92      0.92      1.08      0.01         0.01
  YS02001923YS02001920        0.76      0.76      0.95      0.01         0.01
  YS02001920YS02001918        0.92      0.92      0.95      0.01         0.01
  YS02001629YS02163301        5.67      5.67      5.69      0.01         0.01
  YS02001619YS02001622        5.37      5.37      5.40      0.01         0.01
  YS02001622YS02001625        5.40      5.40      5.64      0.01         0.01
  YS02001625YS02001629        5.38      5.38      5.64      0.01         0.01
  YS02163301YS02001633        5.69      5.69      5.72      0.01         0.01
  YS02163601YS02164001        5.72      5.72      5.75      0.01         0.01
  YS02164001YS02001641        5.72      5.72      5.73      0.01         0.03
  YS02001641YS02001644        5.73      5.73      5.73      1.72         1.94
  YS02001647YS02001649        5.62      5.62      5.76      0.01         0.01
  YS02006553YS02006556        1.48      1.48      1.95      0.01         0.01
  YS02006556YS02006558        1.68      1.68      2.04      0.01         0.01
  YSB6556YSB1171              0.01      0.01      0.07      0.01         0.01
  YS02001907YS02006553        2.52      2.52      2.75      0.01         0.01
  YS02006558YS02006561        1.07      1.44      1.07      2.35         1.07
  YS02001633YS02163601        5.71      5.71      5.75      0.01         0.01
  YS02001644YS02001647        5.62      5.62      5.73      0.01         0.01
  YS02001745YS02001748        0.01      0.01      5.22      0.01         0.01
  YS02001748YS02001751        5.27      5.27      5.36      0.01         0.01
  YS02001751YS02001754        5.36      5.36      5.57      0.01         0.01
  YS02001754YS02001757        5.62      5.62      5.86      0.01         0.01
  YS02001882YS02001884        1.09      1.09      1.10      0.01         0.01
  YS02001884YS02001887        1.15      1.15      1.18      0.01         0.01
  YS02001890YS02001895        1.07      1.07      1.27      0.01         0.01
  YS02001895YS02001898        1.05      1.05      1.07      0.01         0.01
  YS02001898YS02001901        1.07      1.07      1.14      0.01         0.01
  YS02001901YS02001904        1.12      1.12      1.14      0.01         0.01
  YS02001904YS02001907        1.12      1.12      1.98      0.01         0.01
  YS02001887YS02001890        1.20      1.20      1.23      0.16         0.01
  YS02001652YS02001649        5.63      5.63      5.76      0.01         0.01
  YS02001655YS02001652        5.40      5.40      5.61      0.01         0.01
  YS02001658YS02001655        5.25      5.25      5.40      0.01         0.01
  YS02001661YS02001658        0.11      0.11      5.25      0.01         0.01
  YS02001664YS02001661        0.01      0.01      1.32      0.01         0.01
  HS02004881HS02006253        0.01      0.01      0.25      0.01         0.01
  YS02001793JiankangQianchi        2.45      2.45      4.47      0.01         0.01
  YS02001757CaochengTiaoxuchi        5.12      5.12      5.86      0.01         0.01
  
  
  ***************
  Pumping Summary
  ***************
  
  ---------------------------------------------------------------------------------------------------------
                                                  Min       Avg       Max     Total     Power    % Time Off
                        Percent   Number of      Flow      Flow      Flow    Volume     Usage    Pump Curve
  Pump                 Utilized   Start-Ups       LPS       LPS       LPS  10^6 ltr     Kw-hr    Low   High
  ---------------------------------------------------------------------------------------------------------
  CC-Pump-1               40.42           3      0.00    147.98    200.00     1.560      1.22    0.0    0.0
  CC-Pump-2               17.02           3      0.00     93.69    199.92     0.480      0.53    0.0    0.0
  JK-Pump-1               59.56           5      0.00    223.76    300.00     3.705     55.22    0.0    0.0
  JK-Pump-2               51.05           4      0.00    392.39    683.00     6.114     81.91    0.0   95.2
  XR-Pump-1               97.87           2      0.00     93.91     95.00     2.565     25.66    0.0    0.0
  XR-Pump-2               97.87           2      0.00     93.38     95.00     2.508     24.40    0.0    0.0
  XR-Pump-3               95.74           3      0.00     93.37     95.00     2.451     23.16    0.0    0.0
  XR-Pump-4               95.74           3      0.00     93.37     95.00     2.451     23.16    0.0    0.0
  
  
  ***************************
  Link Pollutant Load Summary
  ***************************
  
  ------------------------------------------------------------------------------------------
                                 COD            SS            TN            TP         NH4-N
  Link                            kg            kg            kg            kg            kg
  ------------------------------------------------------------------------------------------
  WS02003066WSF200           772.556      1448.010        20.487         1.811        10.821
  WS02006287WS02006284       319.483       608.129        10.314         1.015         5.678
  WS02006284WS02006280       319.967       608.924        10.360         1.021         5.707
  WS02006280WS02006229       319.926       608.849        10.357         1.020         5.705
  WS02006229WS02006228       763.027      1430.580        19.830         1.729        10.419
  WS02006256WS02006235       222.744       412.222         4.793         0.366         2.405
  WS02006253WS02006251        61.887       121.503         1.378         0.104         0.686
  WS02006252WS02006251       172.924       314.410         3.654         0.267         1.803
  WS02006251WS02006249       227.434       422.547         4.881         0.361         2.416
  WS02006249WS02006248       223.904       415.720         4.810         0.356         2.381
  WS02006248WS02006247       223.693       415.235         4.807         0.356         2.380
  WS02006247WS02006245       223.949       415.784         4.809         0.355         2.381
  WS02006245WS02006243       224.572       417.167         4.813         0.355         2.381
  WS02006243WS02006242       226.091       420.212         4.841         0.357         2.394
  WS02006242WS02006240       227.574       422.983         4.872         0.359         2.409
  WS02006240WS02006239       229.789       426.969         4.922         0.363         2.434
  WS02006239WS02006238       232.417       431.345         4.995         0.370         2.474
  WS02006238WS02006235       233.966       433.829         5.038         0.373         2.497
  WS02006235WS02006234       445.349       825.484         9.558         0.717         4.762
  WS02006234WS02006232       445.082       825.013         9.553         0.717         4.759
  WS02006232WS02006231       444.745       824.407         9.543         0.716         4.754
  WS02006231WS02006230       444.635       824.224         9.539         0.715         4.752
  WS02006230WS02006229       443.900       823.063         9.515         0.713         4.739
  WS02006228WS02006109       762.336      1429.383        19.795         1.725        10.398
  WS02006116WS02004401       779.562      1460.549        20.655         1.824        10.907
  WS02006115WS02006116       780.047      1461.393        20.674         1.826        10.918
  WS02006113WS02006111       769.272      1440.355        20.519         1.816        10.853
  WS02006112WS02006115       780.603      1462.302        20.705         1.830        10.936
  WS02006111WS02006112       769.048      1440.006        20.505         1.815        10.845
  WS02006110WS02006113       769.568      1440.836        20.536         1.818        10.863
  WS02006109WS02006110       770.381      1442.174        20.588         1.824        10.894
  WS02004411WS02004412       775.184      1452.592        20.582         1.820        10.874
  WS02004401WS02004402       778.992      1459.593        20.628         1.821        10.891
  WS02004413WS02003067       773.215      1449.238        20.502         1.812        10.829
  WS02004412WS02004413       774.256      1450.967        20.551         1.817        10.857
  WS02004410WS02004411       775.917      1453.904        20.604         1.822        10.886
  WS02004409WS02004410       776.584      1455.073        20.627         1.825        10.899
  WS02004407WS02004409       777.110      1456.035        20.640         1.826        10.906
  WS02004406WS02004407       777.259      1456.364        20.638         1.825        10.904
  WS02004405WS02004406       778.274      1458.117        20.688         1.831        10.933
  WS02004404WS02004405       778.712      1458.975        20.677         1.828        10.925
  WS02004403WS02004404       777.946      1457.798        20.584         1.816        10.865
  WS02004402WS02004403       778.463      1458.669        20.607         1.819        10.879
  WS02004139WS02001211      1388.529      2305.264       112.759        13.765        69.506
  WS02004138WS02004139      1394.713      2315.599       113.235        13.822        69.799
  WS02003067WS02003066       772.740      1448.333        20.493         1.811        10.824
  WS02001213WS02003059      1422.055      2357.957       116.230        14.202        71.687
  WS02001212WS02001213      1430.863      2372.560       116.941        14.289        72.126
  WS02001211WS02001212      1432.974      2376.009       117.124        14.312        72.239
  WS02003072WS02003073      2295.556      3966.387       146.744        17.272        88.790
  WS02003069WS02003072      2299.866      3973.386       147.104        17.316        89.012
  WS02003060WS02003069      2302.498      3977.905       147.260        17.334        89.106
  WS02003059WS02003060      1419.149      2353.031       116.025        14.178        71.563
  HS02004901HS02004770        13.094        25.473         0.248         0.019         0.116
  HS02004876HS02004881        45.515        90.347         0.999         0.073         0.491
  HS02004870HS02004876        34.382        68.104         0.798         0.060         0.395
  HS02004842HS02004848         6.457        12.344         0.134         0.009         0.062
  HS02004837HS02004842        11.056        19.636         0.603         0.068         0.356
  HS02004830HS02004837        70.296       122.724         4.643         0.552         2.827
  HS02004824HS02004830        71.067       123.978         4.715         0.561         2.871
  HS02004817HS02004824        97.161       176.404         5.254         0.596         3.134
  HS02004770HS02004777        49.661        97.711         1.021         0.069         0.472
  HS02004799HS02004480       162.321       310.832         4.263         0.379         2.209
  HS02004792HS02004799       147.272       280.120         4.028         0.367         2.105
  HS02004788HS02004792        82.817       157.686         2.666         0.255         1.440
  HS02004785HS02004788        51.120       100.048         1.172         0.089         0.567
  HS02004777HS02004785        50.445        98.941         1.112         0.081         0.530
  HS02004480HS02004478       204.818       395.181         4.971         0.429         2.543
  HS02004479HS02004480        46.127        90.114         1.037         0.091         0.538
  HS02004862HS02004870        25.799        50.339         0.628         0.050         0.314
  HS02004848HS02004852        10.252        19.885         0.210         0.014         0.097
  HS02004856HS02004862        17.524        34.749         0.350         0.023         0.164
  HS02004852HS02004856        10.255        19.889         0.210         0.014         0.097
  HS02004802HS02004478       115.337       214.047         5.397         0.592         3.169
  HS02004478WS02006287       319.691       608.489        10.331         1.017         5.689
  HS02004817HS02004807        95.856       174.309         5.129         0.580         3.057
  HS02004807HS02004802       115.594       214.447         5.429         0.596         3.189
  YS02001759YS02001757       301.290       551.058         6.058         0.421         2.964
  YS02001762YS02001759       206.231       381.323         4.246         0.299         2.091
  YS02001765YS02001762       207.250       383.955         4.283         0.302         2.111
  YS02001770YS02001767       209.926       391.271         4.164         0.281         2.023
  YS02001774YS02001770       314.304       609.172         6.025         0.403         2.912
  YS02001779YS02001774       313.531       607.612         6.113         0.417         2.974
  YS02001649YS02001757       395.102       720.186         7.965         0.546         3.841
  YS02001767YS02001765       208.923       387.838         4.326         0.305         2.134
  YS02006561YS02001783      1020.200      1890.715        21.396         1.597        10.648
  YS02001783YS02001784      1020.142      1890.654        21.393         1.597        10.647
  YS02001784YS02001785      1027.515      1902.492        22.107         1.687        11.093
  YS02001788YS02001790      1028.164      1903.583        22.180         1.696        11.140
  YS02001790YS02001791      1029.219      1905.307        22.282         1.709        11.203
  YS02001791YS02001793      1029.218      1905.328        22.279         1.708        11.201
  YS02001910YS02001907       391.311       721.800         9.387         0.718         4.809
  YS02001786YS02001788      1027.750      1902.903        22.135         1.690        11.111
  YS02001915YS02001910       391.296       721.757         9.337         0.711         4.776
  YS02001918YS02001915       191.246       338.104         5.231         0.473         2.812
  YS02001923YS02001920       167.709       298.880         3.225         0.227         1.568
  YS02001926YS02001923       165.238       294.567         3.121         0.216         1.508
  YS02001929YS02001926       164.207       292.782         3.065         0.210         1.475
  YS02001920YS02001918       188.635       332.734         5.154         0.467         2.770
  YS02001629YS02163301        96.144       170.016         2.029         0.131         0.947
  YS02001619YS02001622       175.877       321.143         3.602         0.236         1.684
  YS02001622YS02001625       174.696       319.270         3.573         0.234         1.671
  YS02001625YS02001629        97.235       171.800         2.054         0.132         0.958
  YS02163301YS02001633        96.511       170.899         2.032         0.132         0.949
  YS02163601YS02164001       405.778       733.265         7.899         0.562         3.784
  YS02164001YS02001641       405.256       732.384         7.879         0.560         3.773
  YS02001641YS02001644       405.320       732.415         7.875         0.560         3.770
  YS02001647YS02001649       500.178       922.637         9.951         0.688         4.763
  YS02006553YS02006556       685.960      1260.512        14.764         1.131         7.432
  YS02006556YS02006558       686.081      1260.735        14.738         1.127         7.415
  YSB6556YSB1171              26.520        51.965         0.537         0.045         0.271
  YS02001907YS02006553       685.929      1260.471        14.769         1.132         7.436
  YS02006558YS02006561      1020.176      1890.656        21.394         1.597        10.647
  YS02001633YS02163601       406.486       734.362         7.880         0.558         3.768
  YS02001644YS02001647       507.243       935.175        10.058         0.696         4.811
  YS02001745YS02001748       250.300       467.893         5.528         0.384         2.752
  YS02001748YS02001751       247.955       463.554         5.535         0.389         2.765
  YS02001751YS02001754       247.023       462.014         5.523         0.389         2.761
  YS02001754YS02001757       247.781       463.152         5.687         0.412         2.868
  YS02001882YS02001884         3.623         6.299         0.073         0.006         0.036
  YS02001884YS02001887         6.827        12.098         0.135         0.010         0.067
  YS02001890YS02001895       451.172       846.856         8.305         0.625         4.051
  YS02001895YS02001898       451.068       846.761         8.300         0.624         4.048
  YS02001898YS02001901       450.945       846.559         8.297         0.624         4.047
  YS02001901YS02001904       450.847       846.454         8.304         0.625         4.052
  YS02001904YS02001907       451.172       846.993         8.359         0.632         4.087
  YS02001887YS02001890       468.315       880.854         8.646         0.653         4.223
  YS02001652YS02001649       204.621       380.021         4.125         0.297         1.935
  YS02001655YS02001652       205.442       381.331         4.147         0.299         1.945
  YS02001658YS02001655       205.086       380.726         4.060         0.287         1.888
  YS02001661YS02001658       209.245       388.082         4.146         0.293         1.928
  YS02001664YS02001661       220.533       406.319         4.406         0.310         2.046
  YSB1154YSB6556              26.084        51.270         0.486         0.038         0.239
  YSB1174YSB1171              18.020        35.560         0.361         0.029         0.181
  YSB1171HS02004479           46.091        90.057         1.040         0.092         0.540
  HS02004881HS02006253        51.453       102.493         1.107         0.080         0.543
  YS02001793JiankangQianchi      1029.395      1905.591        22.279         1.708        11.200
  YS02001757CaochengTiaoxuchi       522.655       943.912        11.124         0.805         5.486
  WSF200WS02003060           772.270      1447.440        20.486         1.811        10.822
  1                         2299.858      3972.208       147.418        17.360        89.221
  CC-Pump-1                  132.405       240.807         2.793         0.204         1.378
  CC-Pump-2                   40.196        72.982         0.849         0.062         0.419
  JK-Pump-1                  259.538       483.303         5.497         0.416         2.747
  JK-Pump-2                  538.532      1011.160        11.164         0.836         5.552
  XR-Pump-1                  365.796       606.337        29.939         3.659        18.468
  XR-Pump-2                  353.153       586.107        28.726         3.507        17.710
  XR-Pump-3                  339.659       564.518        27.430         3.346        16.900
  XR-Pump-4                  339.659       564.518        27.430         3.346        16.900
  

  Analysis begun on:  Thu Jul 15 16:31:16 2021
  Analysis ended on:  Thu Jul 15 16:31:19 2021
  Total elapsed time: 00:00:03