
  EPA STORM WATER MANAGEMENT MODEL - VERSION 5.1 (Build 5.3.0.dev0)
  --------------------------------------------------------------

  WARNING 04: minimum elevation drop used for Conduit WS02004404WS02004405
  WARNING 03: negative offset ignored for Link YS02001904YS02001907
  
  *********************************************************
  NOTE: The summary statistics displayed in this report are
  based on results found at every computational time step,  
  not just on results from each reporting time step.
  *********************************************************
  
  ****************
  Analysis Options
  ****************
  Flow Units ............... LPS
  Process Models:
    Rainfall/Runoff ........ YES
    RDII ................... NO
    Snowmelt ............... NO
    Groundwater ............ NO
    Flow Routing ........... YES
    Ponding Allowed ........ NO
    Water Quality .......... YES
  Infiltration Method ...... HORTON
  Flow Routing Method ...... DYNWAVE
  Surcharge Method ......... EXTRAN
  Starting Date ............ 08/28/2015 08:00:00
  Ending Date .............. 08/28/2015 15:50:00
  Antecedent Dry Days ...... 8.0
  Report Time Step ......... 00:01:00
  Wet Time Step ............ 00:01:00
  Dry Time Step ............ 00:01:00
  Routing Time Step ........ 5.00 sec
  Variable Time Step ....... YES
  Maximum Trials ........... 8
  Number of Threads ........ 4
  Head Tolerance ........... 0.001500 m
  
  
  **************************        Volume         Depth
  Runoff Quantity Continuity     hectare-m            mm
  **************************     ---------       -------
  Total Precipitation ......         6.144        13.452
  Evaporation Loss .........         0.000         0.000
  Infiltration Loss ........         1.064         2.328
  Surface Runoff ...........         4.147         9.079
  Final Storage ............         0.935         2.047
  Continuity Error (%) .....        -0.020
  
  
  **************************           COD            SS            TN            TP         NH4-N
  Runoff Quality Continuity             kg            kg            kg            kg            kg
  **************************    ----------    ----------    ----------    ----------    ----------
  Initial Buildup ..........     41378.656     70582.865      1804.177       168.684      1032.807
  Surface Buildup ..........        21.799        40.924         2.400         0.218         1.395
  Wet Deposition ...........         0.000         0.000         0.000         0.000         0.000
  Sweeping Removal .........         0.000         0.000         0.000         0.000         0.000
  Infiltration Loss ........        97.311       184.943         1.849         0.130         0.881
  BMP Removal ..............         0.000         0.000         0.000         0.000         0.000
  Surface Runoff ...........      3769.819      7064.251        72.781         4.964        34.599
  Remaining Buildup ........     37531.916     63371.884      1731.919       163.806       998.709
  Continuity Error (%) .....         0.003         0.004         0.002         0.001         0.001
  
  
  **************************        Volume        Volume
  Flow Routing Continuity        hectare-m      10^6 ltr
  **************************     ---------     ---------
  Dry Weather Inflow .......         0.616         6.165
  Wet Weather Inflow .......         4.145        41.452
  Groundwater Inflow .......         0.000         0.000
  RDII Inflow ..............         0.000         0.000
  External Inflow ..........         0.102         1.024
  External Outflow .........         1.813        18.130
  Flooding Loss ............         2.580        25.803
  Evaporation Loss .........         0.000         0.000
  Exfiltration Loss ........         0.000         0.000
  Initial Stored Volume ....         0.076         0.761
  Final Stored Volume ......         0.652         6.524
  Continuity Error (%) .....        -2.136
  
  
  **************************           COD            SS            TN            TP         NH4-N
  Quality Routing Continuity            kg            kg            kg            kg            kg
  **************************    ----------    ----------    ----------    ----------    ----------
  Dry Weather Inflow .......      1541.201      2465.922       147.955        18.494        92.472
  Wet Weather Inflow .......      3769.113      7063.077        72.765         4.963        34.592
  Groundwater Inflow .......         0.000         0.000         0.000         0.000         0.000
  RDII Inflow ..............         0.000         0.000         0.000         0.000         0.000
  External Inflow ..........       183.418       293.469        17.608         2.201        11.005
  External Outflow .........      2257.037      3898.651       145.313        17.128        87.985
  Flooding Loss ............      2566.406      4767.470        65.825         5.717        34.563
  Exfiltration Loss ........         0.000         0.000         0.000         0.000         0.000
  Mass Reacted .............         0.000         0.000         0.000         0.000         0.000
  Initial Stored Mass ......         0.000         0.000         0.000         0.000         0.000
  Final Stored Mass ........       560.847       970.728        24.489         2.604        14.152
  Continuity Error (%) .....         1.992         1.890         1.134         0.819         0.992
  
  
  *************************
  Highest Continuity Errors
  *************************
  Node HS02004842 (13.41%)
  Node YS02001884 (10.11%)
  Node JK-storage (-9.90%)
  Node HS02004817 (2.53%)
  Node YSB1171 (2.46%)
  
  
  ***************************
  Time-Step Critical Elements
  ***************************
  Link WS02006252WS02006251 (57.04%)
  Link WS02006280WS02006229 (12.70%)
  Link WS02006238WS02006235 (9.31%)
  Link YS02006556YS02006558 (5.90%)
  Link WS02004404WS02004405 (2.68%)
  
  
  ********************************
  Highest Flow Instability Indexes
  ********************************
  Link WS02006113WS02006111 (50)
  Link YS02163601YS02164001 (34)
  Link YS02163301YS02001633 (33)
  Link YS02001629YS02163301 (32)
  Link YS02164001YS02001641 (30)
  
  
  *************************
  Routing Time Step Summary
  *************************
  Minimum Time Step           :     0.50 sec
  Average Time Step           :     1.35 sec
  Maximum Time Step           :     5.00 sec
  Percent in Steady State     :    -0.00
  Average Iterations per Step :     4.07
  Percent Not Converging      :    16.91
  
  
  ***************************
  Subcatchment Runoff Summary
  ***************************
  
  ------------------------------------------------------------------------------------------------------------------------------
                            Total      Total      Total      Total     Imperv       Perv      Total       Total     Peak  Runoff
                           Precip      Runon       Evap      Infil     Runoff     Runoff     Runoff      Runoff   Runoff   Coeff
  Subcatchment                 mm         mm         mm         mm         mm         mm         mm    10^6 ltr      LPS
  ------------------------------------------------------------------------------------------------------------------------------
  sub0                      13.45       0.00       0.00       0.63      12.47       0.31      12.77        0.01     3.75   0.950
  sub1                      13.45       0.00       0.00       1.12      11.88       0.36      12.24        0.08    25.66   0.910
  sub2                      13.45       0.00       0.00       4.44       8.39       0.53       8.92        0.08    25.29   0.663
  sub3                      13.45       0.00       0.00       4.56       8.35       0.42       8.77        0.20    55.75   0.652
  sub4                      13.45       0.00       0.00       1.22      11.71       0.26      11.97        0.25    65.52   0.890
  sub5                      13.45       0.00       0.00       0.68      12.41       0.26      12.67        0.14    44.76   0.942
  sub7                      13.45       0.00       0.00       0.86      12.18       0.35      12.53        0.04    14.26   0.931
  sub8                      13.45       0.00       0.00       0.87      12.17       0.34      12.50        0.08    26.26   0.930
  sub9                      13.45       0.00       0.00       0.88      12.17       0.33      12.50        0.06    19.64   0.929
  sub10                     13.45       0.00       0.00       0.78      12.29       0.29      12.58        0.14    44.00   0.935
  sub11                     13.45       0.00       0.00       0.77      12.30       0.31      12.61        0.15    48.45   0.938
  sub12                     13.45       0.00       0.00       1.25      11.66       0.50      12.16        0.11    38.10   0.904
  sub14                     13.45       0.00       0.00       0.88      12.16       0.33      12.49        0.12    38.67   0.929
  sub15                     13.45       0.00       0.00       3.37       9.35       0.66      10.01        0.17    57.01   0.744
  sub16                     13.45       0.00       0.00       3.56       8.97       0.88       9.85        0.10    37.63   0.732
  sub17                     13.45       0.00       0.00       3.47       9.10       0.84       9.94        0.09    30.67   0.739
  sub22                     13.45       0.00       0.00       4.98       7.63       0.81       8.43        0.53   184.54   0.627
  sub23                     13.45       0.00       0.00       4.17       8.43       0.81       9.24        0.44   154.22   0.687
  sub60                     13.45       0.00       0.00       1.53       9.85       0.09       9.93        3.01   438.14   0.738
  sub61                     13.45       0.00       0.00       2.16       9.95       0.12      10.07        3.11   536.45   0.749
  sub62                     13.45       0.00       0.00       0.98      10.84       0.10      10.94        3.36   552.35   0.813
  sub63                     13.45       0.00       0.00       3.77       8.69       0.14       8.83        2.67   492.63   0.656
  sub64                     13.45       0.00       0.00       1.93       9.45       0.09       9.54        2.90   416.72   0.709
  sub65                     13.45       0.00       0.00       1.67       9.61       0.08       9.70        2.98   423.09   0.721
  sub66                     13.45       0.00       0.00       3.81       8.10       0.09       8.18        2.51   380.66   0.608
  sub67                     13.45       0.00       0.00       0.95      11.38       0.13      11.51        3.55   679.52   0.856
  sub68                     13.45       0.00       0.00       1.75      10.45       0.13      10.59        3.26   586.26   0.787
  sub69                     13.45       0.00       0.00       1.83      10.79       0.19      10.98        2.57   544.72   0.816
  sub70                     13.45      11.20       0.00       7.51      14.65       0.88      15.52        3.55   494.81   0.630
  sub71                     13.45       0.00       0.00       0.99      10.58       0.09      10.67        2.52   389.24   0.793
  sub72                     13.45       0.00       0.00       0.89       8.56       0.05       8.61        1.75   189.18   0.640
  1                         13.45      15.11       0.00       1.37      16.56       4.63      21.19        4.98   484.42   0.742
  2                         13.45       0.00       0.00       3.02       3.21       1.96       5.17        2.07   340.45   0.384
  
  
  ****************************
  Subcatchment Washoff Summary
  ****************************
  
  ------------------------------------------------------------------------------------------
                                 COD            SS            TN            TP         NH4-N
  Subcatchment                    kg            kg            kg            kg            kg
  ------------------------------------------------------------------------------------------
  sub0                         2.670         5.197         0.046         0.004         0.022
  sub1                        11.241        22.423         0.210         0.015         0.101
  sub2                         6.894        13.384         0.145         0.010         0.067
  sub3                        16.924        32.573         0.350         0.024         0.161
  sub4                        25.772        51.904         0.510         0.031         0.245
  sub5                        25.778        50.682         0.460         0.035         0.223
  sub7                         5.751        11.638         0.108         0.007         0.052
  sub8                         8.581        17.755         0.171         0.010         0.082
  sub9                         7.353        15.005         0.142         0.009         0.068
  sub10                       21.202        42.223         0.389         0.028         0.188
  sub11                       20.657        41.614         0.386         0.026         0.187
  sub12                       17.724        35.094         0.321         0.024         0.155
  sub14                       15.732        31.800         0.298         0.020         0.144
  sub15                       20.231        39.321         0.389         0.028         0.182
  sub16                       13.129        25.518         0.249         0.019         0.117
  sub17                       12.049        23.208         0.222         0.017         0.105
  sub22                       62.582       119.432         1.186         0.090         0.554
  sub23                       36.683        72.439         0.776         0.051         0.357
  sub60                      243.520       456.962         4.842         0.298         2.321
  sub61                      302.151       564.434         5.627         0.386         2.710
  sub62                      313.722       596.076         6.119         0.388         2.938
  sub63                      223.275       410.850         4.468         0.314         2.075
  sub64                      305.877       553.773         5.626         0.410         2.687
  sub65                      313.037       569.066         5.795         0.415         2.772
  sub66                      176.068       321.340         3.608         0.236         1.687
  sub67                      466.222       877.505         8.365         0.616         4.045
  sub68                      332.037       626.413         6.347         0.429         3.034
  sub69                      298.258       568.561         5.590         0.393         2.674
  sub70                      502.897       962.303        10.037         0.699         4.710
  sub71                      206.745       396.330         4.242         0.246         2.030
  sub72                      164.385       293.107         3.069         0.210         1.476
  1                          349.075       671.606         7.102         0.495         3.297
  2                           42.749        75.577         1.214         0.073         0.518
  ------------------------------------------------------------------------------------------
  System                    4570.974      8595.115        88.408         6.057        41.983
  
  
  ******************
  Node Depth Summary
  ******************
  
  ---------------------------------------------------------------------------------
                                 Average  Maximum  Maximum  Time of Max    Reported
                                   Depth    Depth      HGL   Occurrence   Max Depth
  Node                 Type       Meters   Meters   Meters  days hr:min      Meters
  ---------------------------------------------------------------------------------
  WS02001211           JUNCTION     0.76     0.84     5.68     0  03:08        0.84
  WS02001212           JUNCTION     0.47     0.57     5.64     0  03:08        0.57
  WS02001213           JUNCTION     0.71     0.85     5.61     0  03:08        0.85
  WS02003069           JUNCTION     0.49     0.71     5.30     0  03:06        0.71
  WS02003072           JUNCTION     0.56     0.75     5.13     0  03:06        0.75
  WS02003073           JUNCTION     0.34     0.47     4.54     0  03:07        0.47
  WS02003060           JUNCTION     0.44     0.63     5.56     0  03:06        0.63
  WS02003066           JUNCTION     0.23     0.39     5.94     0  03:04        0.39
  WS02003059           JUNCTION     0.75     0.90     5.59     0  03:08        0.90
  WS02003067           JUNCTION     0.57     0.82     6.14     0  03:04        0.82
  WS02004401           JUNCTION     0.69     1.27     7.27     0  03:02        1.24
  WS02004402           JUNCTION     0.72     1.26     7.22     0  03:02        1.23
  WS02004403           JUNCTION     0.74     1.23     7.16     0  03:02        1.20
  WS02004404           JUNCTION     0.81     1.27     7.12     0  03:01        1.25
  WS02004406           JUNCTION     0.81     1.19     7.02     0  03:01        1.16
  WS02004409           JUNCTION     0.50     0.96     6.73     0  03:04        0.96
  WS02004410           JUNCTION     0.51     0.95     6.67     0  03:04        0.95
  WS02004411           JUNCTION     0.53     0.93     6.61     0  03:04        0.93
  WS02004412           JUNCTION     0.54     0.90     6.54     0  03:04        0.90
  WS02004413           JUNCTION     0.70     1.02     6.49     0  03:04        1.02
  WS02004405           JUNCTION     0.81     1.24     7.09     0  03:01        1.21
  WS02006109           JUNCTION     0.78     1.70     8.32     0  03:02        1.68
  WS02006110           JUNCTION     0.76     1.49     8.08     0  03:02        1.47
  WS02006111           JUNCTION     0.23     0.93     7.63     0  03:02        0.90
  WS02006112           JUNCTION     0.86     1.60     7.49     0  03:02        1.57
  WS02006113           JUNCTION     0.35     0.96     7.86     0  03:02        0.94
  WS02006115           JUNCTION     0.58     1.26     7.40     0  03:02        1.22
  WS02006116           JUNCTION     0.66     1.30     7.34     0  03:02        1.27
  WS02006230           JUNCTION     0.76     1.92     8.67     0  03:02        1.91
  WS02006231           JUNCTION     0.51     1.56     8.69     0  03:02        1.55
  WS02006232           JUNCTION     0.65     1.66     8.70     0  03:02        1.64
  WS02006234           JUNCTION     0.57     1.56     8.72     0  03:02        1.54
  WS02006235           JUNCTION     0.60     1.57     8.73     0  03:02        1.55
  WS02006238           JUNCTION     0.63     1.59     8.73     0  03:02        1.57
  WS02006240           JUNCTION     0.52     1.42     8.72     0  03:02        1.41
  WS02006242           JUNCTION     0.56     1.44     8.71     0  03:02        1.43
  WS02006243           JUNCTION     0.44     1.28     8.70     0  03:02        1.28
  WS02006245           JUNCTION     0.41     1.22     8.70     0  03:02        1.21
  WS02006247           JUNCTION     0.41     1.20     8.70     0  03:02        1.19
  WS02006248           JUNCTION     0.35     1.10     8.69     0  03:01        1.10
  WS02006249           JUNCTION     0.38     1.09     8.69     0  03:01        1.09
  WS02006239           JUNCTION     0.58     1.51     8.72     0  03:02        1.50
  WS02006251           JUNCTION     0.35     1.32     8.99     0  05:59        1.13
  WS02006252           JUNCTION     0.23     0.87     9.11     0  05:59        0.68
  WS02006253           JUNCTION     0.38     1.39     9.03     0  05:59        1.15
  WS02006256           JUNCTION     1.68     2.35     9.28     0  00:12        2.35
  WS02004138           JUNCTION     0.19     0.20     7.45     0  00:00        0.19
  WS02004139           JUNCTION     0.71     0.79     5.70     0  03:08        0.79
  WS02004407           JUNCTION     0.22     0.40     6.71     0  03:03        0.40
  WS02006228           JUNCTION     0.79     1.87     8.53     0  03:02        1.86
  WS02006229           JUNCTION     0.77     1.95     8.64     0  03:02        1.94
  WS02006280           JUNCTION     0.07     0.32     8.59     0  03:01        0.30
  WS02006284           JUNCTION     0.37     0.65     9.04     0  03:02        0.64
  WS02006287           JUNCTION     0.11     0.39     9.34     0  03:02        0.39
  WSF200               JUNCTION     0.22     0.44     5.67     0  03:04        0.44
  HS02004901           JUNCTION     0.13     0.38    10.20     0  03:01        0.37
  HS02004881           JUNCTION     0.01     0.05     9.08     0  03:01        0.05
  HS02004876           JUNCTION     0.05     0.16     9.19     0  03:01        0.16
  HS02004870           JUNCTION     0.02     0.09     9.38     0  03:01        0.09
  HS02004862           JUNCTION     0.02     0.11     9.49     0  03:01        0.11
  HS02004856           JUNCTION     0.08     0.15     9.58     0  03:01        0.15
  HS02004852           JUNCTION     0.01     0.07     9.59     0  03:02        0.07
  HS02004848           JUNCTION     0.01     0.07     9.67     0  03:01        0.07
  HS02004842           JUNCTION     0.34     0.40     9.67     0  03:01        0.40
  HS02004837           JUNCTION     0.03     0.09     9.67     0  03:01        0.09
  HS02004830           JUNCTION     0.04     0.10     9.57     0  03:01        0.10
  HS02004824           JUNCTION     0.03     0.13     9.53     0  03:02        0.13
  HS02004817           JUNCTION     0.45     0.69     9.54     0  03:02        0.69
  HS02004807           JUNCTION     0.13     0.36     9.53     0  03:02        0.36
  HS02004802           JUNCTION     0.17     0.39     9.52     0  03:02        0.39
  HS02004799           JUNCTION     0.13     0.46     9.68     0  03:01        0.46
  HS02004792           JUNCTION     0.04     0.22     9.74     0  03:01        0.21
  HS02004788           JUNCTION     0.03     0.16    10.05     0  03:02        0.16
  HS02004785           JUNCTION     0.05     0.25    10.15     0  03:02        0.25
  HS02004777           JUNCTION     0.15     0.39    10.19     0  03:01        0.39
  HS02004770           JUNCTION     0.12     0.37    10.20     0  03:01        0.36
  HS02004480           JUNCTION     0.09     0.38     9.62     0  03:01        0.38
  HS02004479           JUNCTION     0.12     0.42     9.62     0  03:01        0.42
  HS02004478           JUNCTION     0.07     0.28     9.50     0  03:01        0.28
  YS02001745           JUNCTION     0.73     0.96     8.48     0  03:12        0.96
  YS02001748           JUNCTION     1.12     2.27     9.35     0  02:32        1.39
  YS02001751           JUNCTION     1.30     2.18     9.06     0  02:32        1.59
  YS02001754           JUNCTION     1.55     2.11     8.72     0  02:32        1.85
  YS02001762           JUNCTION     1.75     2.05     8.45     0  03:07        2.05
  YS02001765           JUNCTION     1.70     2.00     8.45     0  03:02        1.99
  YS02001767           JUNCTION     1.67     1.96     8.45     0  03:01        1.95
  YS02001770           JUNCTION     1.66     1.94     8.44     0  03:00        1.93
  YS02001774           JUNCTION     1.73     1.99     8.41     0  03:00        1.98
  YS02001779           JUNCTION     1.47     1.68     8.37     0  02:32        1.68
  YS02001882           JUNCTION     0.57     1.64     8.35     0  03:01        1.63
  YS02001884           JUNCTION     0.66     1.74     8.35     0  03:01        1.73
  YS02001759           JUNCTION     1.79     2.09     8.45     0  03:00        2.09
  YS02001887           JUNCTION     0.74     1.81     8.35     0  03:01        1.81
  YS02001890           JUNCTION     0.77     1.81     8.32     0  02:47        1.81
  YS02001898           JUNCTION     0.53     1.56     8.30     0  02:57        1.55
  YS02001901           JUNCTION     0.65     1.68     8.29     0  02:53        1.67
  YS02001904           JUNCTION     0.63     1.64     8.27     0  02:47        1.63
  YS02001907           JUNCTION     0.96     1.96     8.25     0  02:47        1.96
  YS02001910           JUNCTION     0.75     1.79     8.30     0  02:47        1.77
  YS02001915           JUNCTION     0.55     1.62     8.33     0  02:47        1.59
  YS02001918           JUNCTION     0.30     1.31     8.38     0  02:47        1.29
  YS02001619           JUNCTION     1.26     1.59     8.52     0  02:32        1.48
  YS02001629           JUNCTION     1.61     1.85     8.40     0  02:32        1.84
  YS02001641           JUNCTION     1.71     1.93     8.37     0  02:55        1.93
  YS02001644           JUNCTION     1.71     1.92     8.35     0  02:39        1.92
  YS02001652           JUNCTION     1.57     2.16     8.76     0  02:25        1.86
  YS02001655           JUNCTION     1.33     2.20     9.05     0  02:25        1.66
  YS02001920           JUNCTION     0.40     1.40     8.40     0  02:47        1.37
  YS02001923           JUNCTION     0.24     1.17     8.43     0  02:47        1.14
  YS02001926           JUNCTION     0.29     1.00     8.44     0  02:48        0.98
  YS02001929           JUNCTION     0.17     0.74     8.44     0  02:48        0.71
  YS02001658           JUNCTION     1.06     1.85     9.00     0  04:23        1.42
  YS02001661           JUNCTION     0.84     1.80     9.21     0  04:24        1.28
  YS02001664           JUNCTION     0.38     0.57     8.50     0  02:42        0.57
  YS02001622           JUNCTION     1.28     1.56     8.46     0  02:32        1.50
  YS02001633           JUNCTION     1.70     1.95     8.40     0  02:58        1.94
  YS02001649           JUNCTION     1.76     2.05     8.44     0  02:43        2.05
  YS02001757           JUNCTION     1.88     2.19     8.45     0  03:13        2.19
  YS02001895           JUNCTION     0.53     1.57     8.31     0  02:53        1.56
  YS02001625           JUNCTION     1.57     1.78     8.38     0  02:32        1.78
  YS02163301           JUNCTION     1.64     1.90     8.42     0  02:32        1.88
  YS02163601           JUNCTION     1.75     1.99     8.39     0  02:48        1.98
  YS02164001           JUNCTION     1.69     1.92     8.37     0  02:57        1.91
  YS02001647           JUNCTION     1.55     1.80     8.41     0  04:38        1.79
  YSB1154              JUNCTION     0.26     0.57     9.62     0  03:01        0.57
  YSB6556              JUNCTION     0.16     0.45     9.62     0  03:02        0.45
  YSB1174              JUNCTION     0.22     0.52     9.62     0  03:01        0.51
  YSB1171              JUNCTION     0.42     0.72     9.62     0  03:01        0.72
  YS02006553           JUNCTION     0.96     1.97     8.25     0  03:01        1.96
  YS02006561           JUNCTION     0.32     1.09     7.75     0  02:58        1.09
  YS02006556           JUNCTION     0.93     1.93     8.24     0  02:59        1.93
  YS02006558           JUNCTION     0.97     1.98     8.25     0  02:59        1.97
  YS02001783           JUNCTION     0.54     1.49     7.63     0  02:42        1.47
  YS02001784           JUNCTION     0.55     1.87     7.94     0  02:42        1.42
  YS02001786           JUNCTION     0.49     2.19     8.22     0  02:42        1.26
  YS02001788           JUNCTION     0.42     2.08     8.06     0  02:42        1.13
  YS02001790           JUNCTION     0.53     1.96     7.60     0  02:41        1.29
  YS02001791           JUNCTION     0.49     2.72     8.19     0  02:41        1.27
  YS02001793           JUNCTION     0.66     2.25     7.08     0  02:41        1.80
  WSC                  OUTFALL      0.34     0.47     1.14     0  03:07        0.47
  JK-storage           STORAGE      2.74     5.80     6.60     0  02:07        5.80
  CC-storage           STORAGE      1.14     1.46     8.46     0  03:12        1.46
  XR-storage           STORAGE      6.62     7.72     5.72     0  02:55        7.72
  
  
  *******************
  Node Inflow Summary
  *******************
  
  -------------------------------------------------------------------------------------------------
                                  Maximum  Maximum                  Lateral       Total        Flow
                                  Lateral    Total  Time of Max      Inflow      Inflow     Balance
                                   Inflow   Inflow   Occurrence      Volume      Volume       Error
  Node                 Type           LPS      LPS  days hr:min    10^6 ltr    10^6 ltr     Percent
  -------------------------------------------------------------------------------------------------
  WS02001211           JUNCTION      7.35   391.81     0  03:16       0.207        9.97       0.409
  WS02001212           JUNCTION      0.00   396.28     0  03:16           0        9.93       0.252
  WS02001213           JUNCTION      0.00   400.21     0  03:15           0         9.9       0.290
  WS02003069           JUNCTION      0.32  1304.61     0  03:06     0.00902        18.2       0.202
  WS02003072           JUNCTION      0.00  1304.30     0  03:06           0        18.2       0.241
  WS02003073           JUNCTION      1.82  1307.01     0  03:07      0.0514        18.2       0.280
  WS02003060           JUNCTION     16.53  1304.53     0  03:05       0.466        18.2       0.190
  WS02003066           JUNCTION      0.00   937.18     0  03:04           0        7.95       0.061
  WS02003059           JUNCTION      0.00   404.96     0  03:15           0        9.88       0.418
  WS02003067           JUNCTION      0.00   935.93     0  03:04           0        7.96       0.125
  WS02004401           JUNCTION      0.00   948.12     0  03:03           0         8.2       0.264
  WS02004402           JUNCTION      0.00   948.08     0  03:03           0        8.18       0.249
  WS02004403           JUNCTION      0.00   947.74     0  03:03           0        8.16       0.226
  WS02004404           JUNCTION      0.16   948.45     0  03:03     0.00457        8.14       0.169
  WS02004406           JUNCTION      0.00   949.10     0  03:03           0        8.11       0.415
  WS02004409           JUNCTION      0.00   947.95     0  03:03           0        8.07       0.221
  WS02004410           JUNCTION      0.00   939.54     0  03:03           0        8.05       0.248
  WS02004411           JUNCTION      0.00   932.42     0  03:04           0        8.03       0.255
  WS02004412           JUNCTION      0.00   933.55     0  03:04           0        8.01       0.273
  WS02004413           JUNCTION      0.00   934.90     0  03:04           0        7.99       0.400
  WS02004405           JUNCTION      0.04   949.15     0  03:03     0.00107        8.13       0.255
  WS02006109           JUNCTION      1.23   924.91     0  03:02      0.0347        8.23       0.196
  WS02006110           JUNCTION      0.00   925.08     0  03:02           0        8.21       0.244
  WS02006111           JUNCTION      0.00   924.85     0  03:03           0        8.18       0.045
  WS02006112           JUNCTION     30.67   947.52     0  03:03      0.0853        8.27       0.358
  WS02006113           JUNCTION      0.00   925.09     0  03:03           0        8.19       0.119
  WS02006115           JUNCTION      0.00   947.42     0  03:03           0        8.24       0.250
  WS02006116           JUNCTION      0.00   947.87     0  03:03           0        8.22       0.225
  WS02006230           JUNCTION     10.28   532.19     0  06:01        0.29         5.8       0.221
  WS02006231           JUNCTION      0.00   521.82     0  06:02           0        5.52       0.159
  WS02006232           JUNCTION      0.00   521.91     0  06:02           0        5.54       0.302
  WS02006234           JUNCTION      0.00   522.14     0  06:01           0        5.54       0.108
  WS02006235           JUNCTION      0.00   522.57     0  06:01           0        5.69       0.199
  WS02006238           JUNCTION      0.00   332.39     0  06:43           0        2.56       0.209
  WS02006240           JUNCTION      0.00   343.39     0  06:42           0        2.46       0.377
  WS02006242           JUNCTION      0.00   352.33     0  06:42           0        2.41       0.422
  WS02006243           JUNCTION      0.00   360.62     0  06:41           0        2.37       0.140
  WS02006245           JUNCTION      0.00   365.84     0  06:41           0        2.36       0.263
  WS02006247           JUNCTION      0.00   370.40     0  06:41           0        2.35       0.088
  WS02006248           JUNCTION      0.00   375.38     0  06:41           0        2.34      -0.031
  WS02006249           JUNCTION      0.00   427.10     0  05:59           0         2.4       0.109
  WS02006239           JUNCTION      0.00   335.64     0  06:43           0        2.51       0.184
  WS02006251           JUNCTION      0.08   420.72     0  03:30     0.00217        2.43      -0.013
  WS02006252           JUNCTION      0.00   399.81     0  06:40           0        1.92       0.004
  WS02006253           JUNCTION      3.75   143.73     0  03:01      0.0103       0.508      -0.049
  WS02006256           JUNCTION      0.00   983.00     0  02:20           0        9.54       0.017
  WS02004138           JUNCTION      0.00   380.00     0  00:00           0         9.8       0.065
  WS02004139           JUNCTION      0.32   394.45     0  00:00     0.00905        9.81       0.469
  WS02004407           JUNCTION      0.00   949.41     0  03:03           0        8.07       0.096
  WS02006228           JUNCTION      0.00   923.30     0  03:03           0        8.21       0.158
  WS02006229           JUNCTION      0.00   956.71     0  03:02           0        8.22       0.158
  WS02006280           JUNCTION      0.00   680.24     0  03:02           0        2.43       0.010
  WS02006284           JUNCTION      0.10   679.12     0  03:02      0.0027        2.43       0.047
  WS02006287           JUNCTION      0.00   677.78     0  03:02           0        2.43       0.031
  WSF200               JUNCTION      0.00   937.54     0  03:04           0        7.94       0.059
  HS02004901           JUNCTION     37.63    37.63     0  03:01       0.103       0.103       1.741
  HS02004881           JUNCTION     14.26   140.57     0  03:01      0.0422       0.463       0.106
  HS02004876           JUNCTION     25.66   127.67     0  03:01      0.0814       0.422       0.131
  HS02004870           JUNCTION     26.26   103.60     0  03:01      0.0799        0.34       0.035
  HS02004862           JUNCTION     25.49    79.38     0  03:01      0.0888       0.261       0.068
  HS02004856           JUNCTION     19.64    55.40     0  03:01      0.0601       0.173       0.844
  HS02004852           JUNCTION      0.00    37.85     0  03:01           0       0.113       0.053
  HS02004848           JUNCTION     55.75    55.75     0  03:01       0.197       0.197       0.028
  HS02004842           JUNCTION      0.00    16.84     0  03:01           0       0.097      15.492
  HS02004837           JUNCTION     50.35    65.69     0  03:01       0.318       0.402       0.204
  HS02004830           JUNCTION      0.15    64.80     0  03:01     0.00423       0.392       0.316
  HS02004824           JUNCTION     65.57   128.43     0  03:01       0.251       0.642       0.086
  HS02004817           JUNCTION      0.60   124.47     0  03:01      0.0169       0.658       2.599
  HS02004807           JUNCTION     48.45   165.77     0  03:01       0.147       0.788       0.554
  HS02004802           JUNCTION      0.00   165.29     0  03:04           0       0.785       0.506
  HS02004799           JUNCTION     38.67   446.11     0  03:01       0.119        1.42       0.191
  HS02004792           JUNCTION    184.82   411.79     0  03:01        0.54         1.3       0.033
  HS02004788           JUNCTION     58.68   233.48     0  03:02       0.219       0.758       0.052
  HS02004785           JUNCTION      0.15   182.25     0  03:01     0.00423        0.54       0.093
  HS02004777           JUNCTION      0.03   185.04     0  03:01    0.000846       0.541       0.972
  HS02004770           JUNCTION    154.22   188.93     0  03:01       0.441       0.542       0.578
  HS02004480           JUNCTION      0.00   517.30     0  03:01           0        1.66       0.069
  HS02004479           JUNCTION      0.00    75.52     0  03:02           0       0.258       0.286
  HS02004478           JUNCTION      0.00   677.19     0  03:02           0        2.43       0.011
  YS02001745           JUNCTION    438.14   438.14     0  03:01        3.01        3.02       0.380
  YS02001748           JUNCTION      0.04   595.91     0  02:32     0.00127        3.01       0.682
  YS02001751           JUNCTION      0.01   443.37     0  03:01     0.00031        2.98       0.796
  YS02001754           JUNCTION      0.26   443.20     0  03:01     0.00733        2.96       0.843
  YS02001762           JUNCTION      0.00   316.87     0  02:42           0        2.05       1.040
  YS02001765           JUNCTION      0.00   316.59     0  02:42           0        2.05       1.202
  YS02001767           JUNCTION      0.54   316.14     0  02:43      0.0151        2.08       1.759
  YS02001770           JUNCTION    552.50   739.25     0  03:12        3.37        4.15       0.770
  YS02001774           JUNCTION      0.00   739.25     0  03:12           0        2.85       0.882
  YS02001779           JUNCTION      0.01   739.26     0  03:12    0.000141        2.82       0.550
  YS02001882           JUNCTION      0.00    43.95     0  02:42           0      0.0245       9.909
  YS02001884           JUNCTION      0.00    44.05     0  02:43           0      0.0614      11.253
  YS02001759           JUNCTION    536.49   622.37     0  02:42        3.11        4.34       0.531
  YS02001887           JUNCTION    679.97   680.09     0  03:01        3.56         3.6       0.241
  YS02001890           JUNCTION      0.00   680.01     0  03:01           0        3.55       0.260
  YS02001898           JUNCTION      0.00   517.23     0  02:59           0        3.45       0.092
  YS02001901           JUNCTION      0.00   517.36     0  02:59           0        3.45       0.197
  YS02001904           JUNCTION      0.00   517.36     0  02:58           0        3.44       0.178
  YS02001907           JUNCTION      0.00  1110.44     0  03:01           0        7.77       0.313
  YS02001910           JUNCTION      0.00   593.25     0  03:01           0        4.34       0.279
  YS02001915           JUNCTION    389.26   593.43     0  03:01        2.52        4.38       0.136
  YS02001918           JUNCTION      0.00   281.90     0  02:48           0        1.88       0.076
  YS02001619           JUNCTION    380.66   380.66     0  03:01        2.51        2.51       0.488
  YS02001629           JUNCTION      0.00   195.93     0  02:39           0        1.59       1.854
  YS02001641           JUNCTION      0.00   411.37     0  02:39           0        4.45       0.479
  YS02001644           JUNCTION    416.76  1566.50     0  03:10         2.9        11.9       0.225
  YS02001652           JUNCTION      0.00   500.67     0  03:01           0        2.62       0.901
  YS02001655           JUNCTION      0.15   501.99     0  03:01     0.00434        2.64       0.912
  YS02001920           JUNCTION      2.87   280.69     0  02:48      0.0809        1.87       0.149
  YS02001923           JUNCTION      0.04   274.07     0  02:49     0.00106        1.77       0.047
  YS02001926           JUNCTION      0.05   220.38     0  02:48     0.00147        1.76       0.192
  YS02001929           JUNCTION    189.18   189.18     0  03:01        1.75        1.75       0.037
  YS02001658           JUNCTION      0.00   610.57     0  02:29           0        2.68       0.818
  YS02001661           JUNCTION      0.00   669.77     0  02:42           0        2.97       0.099
  YS02001664           JUNCTION    492.63   492.63     0  03:01        2.67        2.96       0.216
  YS02001622           JUNCTION      0.00   381.31     0  03:01           0         2.5       1.291
  YS02001633           JUNCTION    423.29   423.29     0  03:01        2.99        4.52       0.714
  YS02001649           JUNCTION      0.00   873.45     0  02:39           0        6.87       0.546
  YS02001757           JUNCTION      0.00  1679.80     0  02:40           0        8.89       1.044
  YS02001895           JUNCTION      0.00   517.22     0  02:59           0        3.45       0.145
  YS02001625           JUNCTION      0.00   408.43     0  03:01           0        2.48       1.591
  YS02163301           JUNCTION      0.00   200.70     0  02:33           0        1.57       1.558
  YS02163601           JUNCTION      0.11   411.84     0  02:39      0.0031        4.48       0.679
  YS02164001           JUNCTION      0.00   412.07     0  02:39           0        4.46       0.452
  YS02001647           JUNCTION      0.00   842.75     0  03:13           0        6.12       0.463
  YSB1154              JUNCTION     44.76    44.76     0  03:01       0.144       0.144       1.017
  YSB6556              JUNCTION      0.00    43.27     0  03:01           0       0.145       0.870
  YSB1174              JUNCTION     38.10    38.10     0  03:01       0.106       0.107       1.222
  YSB1171              JUNCTION      0.00    76.91     0  03:01           0       0.257       2.525
  YS02006553           JUNCTION      0.00   710.16     0  03:46           0         6.7       0.236
  YS02006561           JUNCTION      0.00   981.21     0  03:24           0        9.92       0.010
  YS02006556           JUNCTION      0.00   710.58     0  03:46           0         6.7       0.162
  YS02006558           JUNCTION    587.14   981.92     0  03:24        3.28        9.95       0.047
  YS02001783           JUNCTION      0.00   981.41     0  03:24           0        9.92       0.022
  YS02001784           JUNCTION      1.06   982.90     0  03:24      0.0299        9.95       0.036
  YS02001786           JUNCTION      0.06   982.23     0  03:25     0.00159        9.95       0.034
  YS02001788           JUNCTION      0.07   982.61     0  03:25       0.002        9.95       0.021
  YS02001790           JUNCTION      0.15   982.97     0  03:25     0.00437        9.95       0.001
  YS02001791           JUNCTION      0.00   982.85     0  03:25           0        9.95       0.003
  YS02001793           JUNCTION      0.00   982.90     0  03:24           0        9.95      -0.019
  WSC                  OUTFALL       0.00  1309.54     0  03:07           0        18.1       0.000
  JK-storage           STORAGE       0.00   982.95     0  03:24           0        10.1      -9.007
  CC-storage           STORAGE       0.00  1679.12     0  02:40           0        6.01       1.099
  XR-storage           STORAGE    1024.87  1024.87     0  03:01        12.7        13.3      -0.003
  
  
  **********************
  Node Surcharge Summary
  **********************
  
  Surcharging occurs when water rises above the top of the highest conduit.
  ---------------------------------------------------------------------
                                               Max. Height   Min. Depth
                                   Hours       Above Crown    Below Rim
  Node                 Type      Surcharged         Meters       Meters
  ---------------------------------------------------------------------
  WS02004401           JUNCTION        0.30          0.274        1.386
  WS02004402           JUNCTION        0.33          0.256        1.484
  WS02004403           JUNCTION        0.34          0.231        1.799
  WS02004404           JUNCTION        0.82          0.269        2.511
  WS02004406           JUNCTION        0.66          0.192        2.258
  WS02004413           JUNCTION        0.11          0.023        2.177
  WS02004405           JUNCTION        0.74          0.242        2.558
  WS02006109           JUNCTION        2.31          0.883        0.937
  WS02006110           JUNCTION        1.32          0.581        1.269
  WS02006111           JUNCTION        0.08          0.117        1.753
  WS02006112           JUNCTION        1.46          0.604        1.076
  WS02006113           JUNCTION        0.09          0.164        1.766
  WS02006115           JUNCTION        0.22          0.247        2.003
  WS02006116           JUNCTION        0.24          0.243        2.047
  WS02006230           JUNCTION        0.82          0.843        0.727
  WS02006231           JUNCTION        0.98          0.852        0.678
  WS02006232           JUNCTION        2.20          0.962        0.518
  WS02006234           JUNCTION        1.31          0.843        0.397
  WS02006235           JUNCTION        1.66          0.857        0.433
  WS02006238           JUNCTION        1.74          0.865        0.565
  WS02006240           JUNCTION        0.97          0.714        0.676
  WS02006242           JUNCTION        1.04          0.712        0.108
  WS02006243           JUNCTION        0.86          0.572        0.198
  WS02006245           JUNCTION        0.81          0.509        0.341
  WS02006247           JUNCTION        0.80          0.491        0.269
  WS02006248           JUNCTION        0.62          0.380        0.000
  WS02006249           JUNCTION        0.64          0.390        0.000
  WS02006239           JUNCTION        1.18          0.774        0.516
  WS02006251           JUNCTION        0.22          0.290        0.890
  WS02006252           JUNCTION        0.81          0.473        0.627
  WS02006253           JUNCTION        0.29          0.349        2.131
  WS02006256           JUNCTION        6.78          2.050        0.000
  WS02006228           JUNCTION        2.25          1.044        1.156
  YS02001748           JUNCTION        5.22          1.190        0.000
  YS02001751           JUNCTION        5.36          1.182        0.018
  YS02001754           JUNCTION        5.57          1.064        0.086
  YS02001762           JUNCTION        5.75          1.052        0.098
  YS02001765           JUNCTION        5.72          0.998        0.102
  YS02001767           JUNCTION        5.70          0.959        0.071
  YS02001770           JUNCTION        5.68          0.910        0.010
  YS02001774           JUNCTION        5.74          0.992        0.058
  YS02001779           JUNCTION        5.56          0.680        0.000
  YS02001882           JUNCTION        1.08          0.636        0.194
  YS02001884           JUNCTION        1.09          0.676        0.194
  YS02001759           JUNCTION        5.78          1.089        0.121
  YS02001887           JUNCTION        1.17          0.764        0.186
  YS02001890           JUNCTION        1.20          0.760        0.000
  YS02001898           JUNCTION        1.05          0.532        0.208
  YS02001901           JUNCTION        1.13          0.677        0.193
  YS02001904           JUNCTION        1.11          0.640        0.210
  YS02001907           JUNCTION        1.89          0.950        0.000
  YS02001910           JUNCTION        1.24          0.794        0.306
  YS02001915           JUNCTION        1.07          0.617        0.383
  YS02001918           JUNCTION        0.91          0.313        0.497
  YS02001619           JUNCTION        5.37          0.589        0.021
  YS02001629           JUNCTION        5.38          0.470        0.000
  YS02001641           JUNCTION        5.73          0.934        0.166
  YS02001644           JUNCTION        5.73          0.920        0.000
  YS02001652           JUNCTION        5.61          1.130        0.000
  YS02001655           JUNCTION        5.39          1.200        0.000
  YS02001920           JUNCTION        0.94          0.395        0.745
  YS02001658           JUNCTION        5.25          0.855        0.445
  YS02001661           JUNCTION        0.12          0.733        0.657
  YS02001622           JUNCTION        5.41          0.560        0.060
  YS02001633           JUNCTION        5.71          0.928        0.132
  YS02001649           JUNCTION        5.76          1.050        0.000
  YS02001757           JUNCTION        5.86          1.189        0.021
  YS02001895           JUNCTION        1.06          0.566        0.184
  YS02001625           JUNCTION        5.64          0.780        0.000
  YS02163301           JUNCTION        5.69          0.899        0.131
  YS02163601           JUNCTION        5.75          0.988        0.092
  YS02164001           JUNCTION        5.72          0.916        0.184
  YS02001647           JUNCTION        5.62          0.801        0.099
  YS02006553           JUNCTION        1.98          0.969        0.221
  YS02006561           JUNCTION        0.96          0.294        0.856
  YS02006556           JUNCTION        1.47          0.894        0.456
  YS02006558           JUNCTION        1.43          0.878        0.522
  YS02001783           JUNCTION        1.19          0.685        0.915
  YS02001784           JUNCTION        1.15          1.072        0.418
  YS02001786           JUNCTION        1.09          1.386        0.044
  YS02001788           JUNCTION        1.04          1.281        0.199
  YS02001790           JUNCTION        2.32          1.157        0.000
  YS02001791           JUNCTION        2.44          1.920        0.000
  YS02001793           JUNCTION        2.75          1.247        1.353
  
  
  *********************
  Node Flooding Summary
  *********************
  
  Flooding refers to all water that overflows a node, whether it ponds or not.
  --------------------------------------------------------------------------
                                                             Total   Maximum
                                 Maximum   Time of Max       Flood    Ponded
                        Hours       Rate    Occurrence      Volume     Depth
  Node                 Flooded       LPS   days hr:min    10^6 ltr    Meters
  --------------------------------------------------------------------------
  WS02006248              0.05     30.09      0  03:03       0.003     0.000
  WS02006249              0.25    119.33      0  03:30       0.050     0.000
  WS02006256              3.50    835.04      0  03:02       6.285     0.000
  YS02001748              0.01    192.66      0  02:32       0.000     0.000
  YS02001779              3.23    739.26      0  03:12       2.799     0.000
  YS02001890              0.34    164.62      0  03:01       0.085     0.000
  YS02001907              0.78    717.50      0  03:01       1.062     0.000
  YS02001629              0.01     16.34      0  02:32       0.000     0.000
  YS02001644              4.90   1566.48      0  03:10      10.376     0.000
  YS02001652              0.01     23.73      0  02:25       0.000     0.000
  YS02001655              0.01    300.91      0  02:25       0.000     0.000
  YS02001649              0.02     33.18      0  02:43       0.000     0.000
  YS02001625              1.40    408.35      0  03:01       0.855     0.000
  YS02001790              0.01    222.41      0  02:41       0.000     0.000
  YS02001791              0.01    188.97      0  02:41       0.000     0.000
  JK-storage              1.27    966.31      0  02:49       1.559     0.000
  XR-storage              3.52    644.78      0  03:01       2.729     0.000
  
  
  **********************
  Storage Volume Summary
  **********************
  
  --------------------------------------------------------------------------------------------------
                         Average     Avg  Evap Exfil       Maximum     Max    Time of Max    Maximum
                          Volume    Pcnt  Pcnt  Pcnt        Volume    Pcnt     Occurrence    Outflow
  Storage Unit           1000 m3    Full  Loss  Loss       1000 m3    Full    days hr:min        LPS
  --------------------------------------------------------------------------------------------------
  JK-storage               0.138      47     0     0         0.291     100       0  02:07     983.00
  CC-storage               3.183      20     0     0         4.070      26       0  03:12     399.81
  XR-storage               0.794      86     0     0         0.926     100       0  02:55     380.00
  
  
  ***********************
  Outfall Loading Summary
  ***********************
  
  ---------------------------------------------------------------------------------------------------------------------------------
                         Flow       Avg       Max       Total         Total         Total         Total         Total         Total
                         Freq      Flow      Flow      Volume           COD            SS            TN            TP         NH4-N
  Outfall Node           Pcnt       LPS       LPS    10^6 ltr            kg            kg            kg            kg            kg
  ---------------------------------------------------------------------------------------------------------------------------------
  WSC                  100.00    719.25   1309.54      18.130      2257.146      3898.827       145.323        17.130        87.992
  ---------------------------------------------------------------------------------------------------------------------------------
  System               100.00    719.25   1309.54      18.130      2257.146      3898.827       145.323        17.130        87.992
  
  
  ********************
  Link Flow Summary
  ********************
  
  -----------------------------------------------------------------------------
                                 Maximum  Time of Max   Maximum    Max/    Max/
                                  |Flow|   Occurrence   |Veloc|    Full    Full
  Link                 Type          LPS  days hr:min     m/sec    Flow   Depth
  -----------------------------------------------------------------------------
  WS02003066WSF200     CONDUIT    937.54     0  03:04      3.00    0.16    0.32
  WS02006287WS02006284 CONDUIT    679.02     0  03:02      2.38    0.31    0.39
  WS02006284WS02006280 CONDUIT    680.24     0  03:02      2.62    0.28    0.37
  WS02006280WS02006229 CONDUIT    688.41     0  03:02      4.05    0.15    0.53
  WS02006229WS02006228 CONDUIT    923.30     0  03:03      1.84    3.06    1.00
  WS02006256WS02006235 CONDUIT    264.10     0  00:12      3.74    2.80    1.00
  WS02006253WS02006251 CONDUIT    149.85     0  03:02      0.69    0.45    1.00
  WS02006252WS02006251 CONDUIT    400.27     0  06:20      3.19    1.47    1.00
  WS02006251WS02006249 CONDUIT    427.10     0  05:59      1.13    1.23    1.00
  WS02006249WS02006248 CONDUIT    375.38     0  06:41      1.19    2.06    1.00
  WS02006248WS02006247 CONDUIT    370.40     0  06:41      1.16    0.81    1.00
  WS02006247WS02006245 CONDUIT    365.84     0  06:41      1.14    2.90    1.00
  WS02006245WS02006243 CONDUIT    360.62     0  06:41      1.17    1.07    1.00
  WS02006243WS02006242 CONDUIT    352.33     0  06:42      1.06    0.75    1.00
  WS02006242WS02006240 CONDUIT    343.39     0  06:42      1.00    1.36    1.00
  WS02006240WS02006239 CONDUIT    335.64     0  06:43      1.04    1.06    1.00
  WS02006239WS02006238 CONDUIT    332.39     0  06:43      0.95    1.06    1.00
  WS02006238WS02006235 CONDUIT    331.26     0  06:44      1.05    0.74    1.00
  WS02006235WS02006234 CONDUIT    522.14     0  06:01      1.36    5.51    1.00
  WS02006234WS02006232 CONDUIT    521.91     0  06:02      1.36    1.06    1.00
  WS02006232WS02006231 CONDUIT    521.82     0  06:02      1.36    1.09    1.00
  WS02006231WS02006230 CONDUIT    521.91     0  06:01      1.36    7.92    1.00
  WS02006230WS02006229 CONDUIT    533.83     0  06:00      1.39   11.88    1.00
  WS02006228WS02006109 CONDUIT    923.68     0  03:02      1.84    4.04    1.00
  WS02006116WS02004401 CONDUIT    948.12     0  03:03      1.21    1.31    1.00
  WS02006115WS02006116 CONDUIT    947.87     0  03:03      1.21    1.22    1.00
  WS02006113WS02006111 CONDUIT    924.85     0  03:03      2.61    1.11    1.00
  WS02006112WS02006115 CONDUIT    947.42     0  03:03      1.21    0.56    1.00
  WS02006111WS02006112 CONDUIT    924.90     0  03:03      1.84    0.44    1.00
  WS02006110WS02006113 CONDUIT    925.09     0  03:03      1.84    0.84    1.00
  WS02006109WS02006110 CONDUIT    925.08     0  03:02      1.84    1.78    1.00
  WS02004411WS02004412 CONDUIT    933.55     0  03:04      1.24    1.33    0.92
  WS02004401WS02004402 CONDUIT    948.08     0  03:03      1.21    1.14    1.00
  WS02004413WS02003067 CONDUIT    935.93     0  03:04      1.55    0.40    0.72
  WS02004412WS02004413 CONDUIT    934.90     0  03:04      1.21    0.63    0.95
  WS02004410WS02004411 CONDUIT    932.42     0  03:04      1.23    1.27    0.94
  WS02004409WS02004410 CONDUIT    939.54     0  03:03      1.22    1.22    0.95
  WS02004407WS02004409 CONDUIT    947.95     0  03:03      1.70    0.34    0.68
  WS02004406WS02004407 CONDUIT    949.41     0  03:03      1.62    0.42    0.70
  WS02004405WS02004406 CONDUIT    949.10     0  03:03      1.21    1.87    1.00
  WS02004404WS02004405 CONDUIT    949.11     0  03:03      1.21    9.30    1.00
  WS02004403WS02004404 CONDUIT    948.28     0  03:03      1.21    0.69    1.00
  WS02004402WS02004403 CONDUIT    947.74     0  03:03      1.21    1.36    1.00
  WS02004139WS02001211 CONDUIT    384.46     0  03:16      0.90    0.49    0.64
  WS02004138WS02004139 CONDUIT    394.13     0  00:00      3.62    0.08    0.46
  WS02003067WS02003066 CONDUIT    937.18     0  03:04      1.65    0.30    0.50
  WS02001213WS02003059 CONDUIT    404.96     0  03:15      0.89    0.67    0.86
  WS02001212WS02001213 CONDUIT    400.21     0  03:15      1.32    0.62    0.55
  WS02001211WS02001212 CONDUIT    396.28     0  03:16      0.78    0.30    0.71
  WS02003072WS02003073 CONDUIT   1305.19     0  03:07      1.94    2.82    0.57
  WS02003069WS02003072 CONDUIT   1304.30     0  03:06      1.80    0.63    0.61
  WS02003060WS02003069 CONDUIT   1304.29     0  03:06      2.02    0.51    0.56
  WS02003059WS02003060 CONDUIT    410.40     0  03:14      0.95    0.27    0.76
  HS02004901HS02004770 CONDUIT     37.24     0  03:01      0.10    0.14    0.53
  HS02004876HS02004881 CONDUIT    127.66     0  03:01      1.21    1.36    0.15
  HS02004870HS02004876 CONDUIT    103.12     0  03:01      0.82    0.07    0.18
  HS02004842HS02004848 CONDUIT     16.84     0  03:01      0.07    0.01    0.33
  HS02004837HS02004842 CONDUIT     17.92     0  03:03      0.42    0.01    0.35
  HS02004830HS02004837 CONDUIT     64.65     0  03:01      0.67    0.06    0.14
  HS02004824HS02004830 CONDUIT     64.12     0  03:02      0.62    0.08    0.16
  HS02004817HS02004824 CONDUIT    123.87     0  03:01      0.31    0.06    0.58
  HS02004770HS02004777 CONDUIT    185.01     0  03:01      0.49    0.34    0.54
  HS02004799HS02004480 CONDUIT    444.43     0  03:01      1.07    0.56    0.60
  HS02004792HS02004799 CONDUIT    408.52     0  03:01      1.20    0.25    0.49
  HS02004788HS02004792 CONDUIT    232.98     0  03:02      1.28    0.15    0.26
  HS02004785HS02004788 CONDUIT    181.81     0  03:02      0.91    1.37    0.29
  HS02004777HS02004785 CONDUIT    182.10     0  03:01      0.57    0.22    0.45
  HS02004480HS02004478 CONDUIT    517.46     0  03:01      1.55    2.18    0.48
  HS02004479HS02004480 CONDUIT     77.38     0  03:02      0.30    0.07    0.57
  HS02004862HS02004870 CONDUIT     79.03     0  03:01      0.80    0.09    0.14
  HS02004848HS02004852 CONDUIT     37.85     0  03:01      0.53    0.04    0.10
  HS02004856HS02004862 CONDUIT     54.76     0  03:01      0.59    0.05    0.13
  HS02004852HS02004856 CONDUIT     37.76     0  03:02      0.34    0.04    0.16
  HS02004802HS02004478 CONDUIT    170.18     0  03:04      0.54    0.15    0.48
  HS02004478WS02006287 CONDUIT    677.78     0  03:02      2.11    0.19    0.36
  HS02004817HS02004807 CONDUIT    128.15     0  03:04      0.25    0.08    0.75
  HS02004807HS02004802 CONDUIT    165.29     0  03:04      0.46    0.32    0.53
  YS02001759YS02001757 CONDUIT    621.47     0  02:42      0.79    0.44    1.00
  YS02001762YS02001759 CONDUIT    316.38     0  02:42      0.40    0.36    1.00
  YS02001765YS02001762 CONDUIT    316.87     0  02:42      0.40    0.30    1.00
  YS02001770YS02001767 CONDUIT    315.60     0  02:43      0.40    1.25    1.00
  YS02001774YS02001770 CONDUIT    739.25     0  03:12      0.94    0.47    1.00
  YS02001779YS02001774 CONDUIT    739.26     0  03:12      0.94    0.37    1.00
  YS02001649YS02001757 CONDUIT    873.22     0  02:39      1.11    0.53    1.00
  YS02001767YS02001765 CONDUIT    316.59     0  02:42      0.40    0.40    1.00
  YS02006561YS02001783 CONDUIT    981.41     0  03:24      2.16    0.51    1.00
  YS02001783YS02001784 CONDUIT    981.84     0  03:24      1.95    1.35    1.00
  YS02001784YS02001785 CONDUIT    982.18     0  03:25      1.95    2.29    1.00
  YS02001788YS02001790 CONDUIT    982.82     0  03:25      2.44    0.72    1.00
  YS02001790YS02001791 CONDUIT    982.85     0  03:25      2.97    1.07    1.00
  YS02001791YS02001793 CONDUIT    982.90     0  03:24      5.89    0.42    1.00
  YS02001910YS02001907 CONDUIT    593.36     0  03:01      0.76    0.33    1.00
  YS02001786YS02001788 CONDUIT    982.54     0  03:25      2.31    1.89    1.00
  YS02001915YS02001910 CONDUIT    593.25     0  03:01      0.76    0.29    1.00
  YS02001918YS02001915 CONDUIT    283.28     0  02:48      0.44    0.16    1.00
  YS02001923YS02001920 CONDUIT    277.82     0  02:48      0.75    0.12    1.00
  YS02001926YS02001923 CONDUIT    274.04     0  02:49      0.86    0.39    0.96
  YS02001929YS02001926 CONDUIT    220.33     0  02:48      0.92    0.10    0.86
  YS02001920YS02001918 CONDUIT    281.90     0  02:48      0.72    0.27    1.00
  YS02001629YS02163301 CONDUIT    200.70     0  02:33      0.26    0.25    1.00
  YS02001619YS02001622 CONDUIT    381.31     0  03:01      0.59    0.56    1.00
  YS02001622YS02001625 CONDUIT    381.28     0  03:01      0.49    0.20    1.00
  YS02001625YS02001629 CONDUIT    195.93     0  02:39      0.25    0.09    1.00
  YS02163301YS02001633 CONDUIT    204.38     0  02:33      0.26    0.19    1.00
  YS02163601YS02164001 CONDUIT    412.07     0  02:39      0.52    0.37    1.00
  YS02164001YS02001641 CONDUIT    411.37     0  02:39      0.52    0.56    1.00
  YS02001641YS02001644 CONDUIT    411.61     0  02:39      0.52    1.33    1.00
  YS02001647YS02001649 CONDUIT    842.75     0  03:13      1.07    0.44    1.00
  YS02006553YS02006556 CONDUIT    710.58     0  03:46      0.90    0.61    1.00
  YS02006556YS02006558 CONDUIT    710.88     0  03:46      0.91    0.56    1.00
  YSB6556YSB1171       CONDUIT     42.87     0  03:02      0.13    0.04    0.82
  YS02001907YS02006553 CONDUIT    710.16     0  03:46      0.79    0.84    1.00
  YS02006558YS02006561 CONDUIT    981.21     0  03:24      3.49    2.17    1.00
  YS02001633YS02163601 CONDUIT    411.73     0  02:39      0.52    0.43    1.00
  YS02001644YS02001647 CONDUIT    842.75     0  03:13      1.07    0.50    1.00
  YS02001745YS02001748 CONDUIT    595.87     0  02:32      1.45    0.23    0.98
  YS02001748YS02001751 CONDUIT    443.36     0  03:01      1.03    0.22    1.00
  YS02001751YS02001754 CONDUIT    442.94     0  03:01      0.88    0.21    1.00
  YS02001754YS02001757 CONDUIT    443.57     0  03:01      0.56    0.18    1.00
  YS02001882YS02001884 CONDUIT     43.95     0  02:42      0.12    0.05    1.00
  YS02001884YS02001887 CONDUIT     44.05     0  02:43      0.08    0.06    1.00
  YS02001890YS02001895 CONDUIT    517.22     0  02:59      0.66    0.24    1.00
  YS02001895YS02001898 CONDUIT    517.23     0  02:59      0.66    0.90    1.00
  YS02001898YS02001901 CONDUIT    517.36     0  02:59      0.66    0.33    1.00
  YS02001901YS02001904 CONDUIT    517.36     0  02:58      0.66    0.80    1.00
  YS02001904YS02001907 CONDUIT    517.59     0  02:59      0.66    0.18    1.00
  YS02001887YS02001890 CONDUIT    680.01     0  03:01      0.87    1.16    1.00
  YS02001652YS02001649 CONDUIT    500.39     0  03:01      0.64    0.25    1.00
  YS02001655YS02001652 CONDUIT    500.67     0  03:01      0.94    0.24    1.00
  YS02001658YS02001655 CONDUIT    501.83     0  03:01      1.18    0.21    1.00
  YS02001661YS02001658 CONDUIT    610.57     0  02:29      1.52    0.24    1.00
  YS02001664YS02001661 CONDUIT    669.77     0  02:42      1.43    0.21    0.77
  YSB1154YSB6556       CONDUIT     43.27     0  03:01      0.18    0.08    0.73
  YSB1174YSB1171       CONDUIT     36.63     0  03:01      0.11    0.06    0.85
  YSB1171HS02004479    CONDUIT     75.52     0  03:02      0.54    0.05    0.68
  HS02004881HS02006253 CONDUIT    140.48     0  03:01      2.49    0.03    0.54
  YS02001793JiankangQianchi CONDUIT    982.95     0  03:24     16.63    0.08    1.00
  YS02001757CaochengTiaoxuchi CONDUIT   1679.12     0  02:40      2.17    0.74    1.00
  WSF200WS02003060     CONDUIT    938.75     0  03:04      1.95    0.21    0.44
  1                    CONDUIT   1309.54     0  03:07      3.57    0.46    0.47
  CC-Pump-1            PUMP       200.00     0  03:20              1.00
  CC-Pump-2            PUMP       199.90     0  06:40              1.00
  JK-Pump-1            PUMP       300.00     0  02:20              1.00
  JK-Pump-2            PUMP       683.00     0  02:20              1.00
  XR-Pump-1            PUMP        95.00     0  00:00              1.00
  XR-Pump-2            PUMP        95.00     0  00:00              1.00
  XR-Pump-3            PUMP        95.00     0  00:00              1.00
  XR-Pump-4            PUMP        95.00     0  00:00              1.00
  
  
  ***************************
  Flow Classification Summary
  ***************************
  
  -------------------------------------------------------------------------------------
                      Adjusted    ---------- Fraction of Time in Flow Class ---------- 
                       /Actual         Up    Down  Sub   Sup   Up    Down  Norm  Inlet 
  Conduit               Length    Dry  Dry   Dry   Crit  Crit  Crit  Crit  Ltd   Ctrl  
  -------------------------------------------------------------------------------------
  WS02003066WSF200        1.00   0.01  0.05  0.00  0.00  0.94  0.00  0.00  0.59  0.00
  WS02006287WS02006284    1.00   0.03  0.02  0.00  0.62  0.33  0.00  0.00  0.65  0.00
  WS02006284WS02006280    1.00   0.04  0.00  0.00  0.00  0.00  0.00  0.96  0.00  0.00
  WS02006280WS02006229    1.00   0.04  0.00  0.00  0.01  0.01  0.00  0.94  0.00  0.00
  WS02006229WS02006228    1.00   0.00  0.00  0.00  1.00  0.00  0.00  0.00  0.00  0.00
  WS02006256WS02006235    1.00   0.01  0.00  0.00  0.99  0.00  0.00  0.00  0.00  0.00
  WS02006253WS02006251    1.00   0.02  0.02  0.00  0.96  0.00  0.01  0.00  0.00  0.00
  WS02006252WS02006251    1.00   0.22  0.02  0.00  0.05  0.00  0.70  0.00  0.00  0.00
  WS02006251WS02006249    1.00   0.00  0.00  0.00  1.00  0.00  0.00  0.00  0.37  0.00
  WS02006249WS02006248    1.00   0.00  0.00  0.00  0.84  0.00  0.16  0.00  0.00  0.00
  WS02006248WS02006247    1.00   0.01  0.00  0.00  0.99  0.00  0.00  0.01  0.25  0.00
  WS02006247WS02006245    1.00   0.01  0.00  0.00  0.98  0.00  0.00  0.01  0.00  0.00
  WS02006245WS02006243    1.00   0.01  0.00  0.00  0.93  0.00  0.00  0.06  0.01  0.00
  WS02006243WS02006242    1.00   0.01  0.00  0.00  0.99  0.00  0.00  0.00  0.31  0.00
  WS02006242WS02006240    1.00   0.01  0.00  0.00  0.99  0.00  0.00  0.00  0.00  0.00
  WS02006240WS02006239    1.00   0.01  0.00  0.00  0.93  0.00  0.00  0.06  0.01  0.00
  WS02006239WS02006238    1.00   0.01  0.00  0.00  0.99  0.00  0.00  0.00  0.12  0.00
  WS02006238WS02006235    1.00   0.01  0.00  0.00  0.99  0.00  0.00  0.00  0.00  0.00
  WS02006235WS02006234    1.00   0.01  0.00  0.00  0.95  0.00  0.04  0.00  0.00  0.00
  WS02006234WS02006232    1.00   0.01  0.00  0.00  0.99  0.00  0.00  0.00  0.08  0.00
  WS02006232WS02006231    1.00   0.01  0.00  0.00  0.99  0.00  0.00  0.00  0.00  0.00
  WS02006231WS02006230    1.00   0.01  0.00  0.00  0.59  0.00  0.40  0.00  0.00  0.00
  WS02006230WS02006229    1.00   0.00  0.00  0.00  0.99  0.00  0.00  0.01  0.00  0.00
  WS02006228WS02006109    1.00   0.00  0.00  0.00  1.00  0.00  0.00  0.00  0.00  0.00
  WS02006116WS02004401    1.00   0.01  0.00  0.00  0.99  0.00  0.00  0.00  0.00  0.00
  WS02006115WS02006116    1.00   0.01  0.00  0.00  0.98  0.00  0.00  0.00  0.00  0.00
  WS02006113WS02006111    1.00   0.01  0.00  0.00  0.03  0.96  0.00  0.00  0.19  0.00
  WS02006112WS02006115    1.00   0.01  0.00  0.00  0.98  0.00  0.00  0.00  0.00  0.00
  WS02006111WS02006112    1.00   0.01  0.00  0.00  0.99  0.00  0.00  0.00  0.87  0.00
  WS02006110WS02006113    1.00   0.00  0.01  0.00  0.99  0.00  0.00  0.00  0.00  0.00
  WS02006109WS02006110    1.00   0.00  0.00  0.00  0.99  0.00  0.00  0.00  0.00  0.00
  WS02004411WS02004412    1.00   0.03  0.00  0.00  0.97  0.00  0.00  0.00  0.00  0.00
  WS02004401WS02004402    1.00   0.02  0.00  0.00  0.98  0.00  0.00  0.00  0.00  0.00
  WS02004413WS02003067    1.00   0.03  0.02  0.00  0.00  0.00  0.95  0.00  0.00  0.00
  WS02004412WS02004413    1.00   0.03  0.00  0.00  0.97  0.00  0.00  0.00  0.02  0.00
  WS02004410WS02004411    1.00   0.03  0.00  0.00  0.97  0.00  0.00  0.00  0.03  0.00
  WS02004409WS02004410    1.00   0.03  0.00  0.00  0.97  0.00  0.00  0.00  0.04  0.00
  WS02004407WS02004409    1.00   0.03  0.00  0.00  0.97  0.00  0.00  0.00  0.91  0.00
  WS02004406WS02004407    1.00   0.00  0.03  0.00  0.97  0.00  0.00  0.00  0.00  0.00
  WS02004405WS02004406    1.00   0.00  0.00  0.00  1.00  0.00  0.00  0.00  0.02  0.00
  WS02004404WS02004405    1.00   0.00  0.00  0.00  1.00  0.00  0.00  0.00  0.00  0.00
  WS02004403WS02004404    1.00   0.00  0.02  0.00  0.98  0.00  0.00  0.00  0.00  0.00
  WS02004402WS02004403    1.00   0.02  0.00  0.00  0.98  0.00  0.00  0.00  0.00  0.00
  WS02004139WS02001211    1.00   0.00  0.00  0.00  1.00  0.00  0.00  0.00  0.00  0.00
  WS02004138WS02004139    1.00   0.00  0.00  0.00  1.00  0.00  0.00  0.00  1.00  0.00
  WS02003067WS02003066    1.00   0.05  0.01  0.00  0.94  0.00  0.00  0.00  0.00  0.00
  WS02001213WS02003059    1.00   0.00  0.00  0.00  1.00  0.00  0.00  0.00  0.00  0.00
  WS02001212WS02001213    1.00   0.00  0.00  0.00  0.90  0.00  0.10  0.00  0.00  0.00
  WS02001211WS02001212    1.00   0.00  0.00  0.00  1.00  0.00  0.00  0.00  0.00  0.00
  WS02003072WS02003073    1.00   0.00  0.00  0.00  0.00  0.00  0.00  1.00  0.00  0.00
  WS02003069WS02003072    1.00   0.00  0.00  0.00  1.00  0.00  0.00  0.00  0.10  0.00
  WS02003060WS02003069    1.00   0.00  0.00  0.00  0.99  0.01  0.00  0.00  0.08  0.00
  WS02003059WS02003060    1.00   0.00  0.00  0.00  1.00  0.00  0.00  0.00  0.00  0.00
  HS02004901HS02004770    1.00   0.04  0.00  0.00  0.96  0.00  0.00  0.00  0.00  0.00
  HS02004876HS02004881    1.00   0.01  0.00  0.00  0.90  0.09  0.00  0.00  0.00  0.00
  HS02004870HS02004876    1.00   0.00  0.00  0.00  0.99  0.00  0.00  0.00  0.95  0.00
  HS02004842HS02004848    1.00   0.00  0.04  0.00  0.96  0.00  0.00  0.00  0.54  0.00
  HS02004837HS02004842    1.00   0.00  0.00  0.00  1.00  0.00  0.00  0.00  0.11  0.00
  HS02004830HS02004837    1.00   0.00  0.00  0.00  1.00  0.00  0.00  0.00  0.99  0.00
  HS02004824HS02004830    1.00   0.00  0.00  0.00  1.00  0.00  0.00  0.00  0.01  0.00
  HS02004817HS02004824    1.00   0.00  0.00  0.00  1.00  0.00  0.00  0.00  0.97  0.00
  HS02004770HS02004777    1.00   0.00  0.04  0.00  0.96  0.00  0.00  0.00  0.03  0.00
  HS02004799HS02004480    1.00   0.00  0.01  0.00  0.95  0.00  0.04  0.00  0.00  0.00
  HS02004792HS02004799    1.00   0.00  0.00  0.00  1.00  0.00  0.00  0.00  0.98  0.00
  HS02004788HS02004792    1.00   0.00  0.00  0.00  1.00  0.00  0.00  0.00  0.98  0.00
  HS02004785HS02004788    1.00   0.00  0.00  0.00  1.00  0.00  0.00  0.00  0.00  0.00
  HS02004777HS02004785    1.00   0.00  0.00  0.00  1.00  0.00  0.00  0.00  0.12  0.00
  HS02004480HS02004478    1.00   0.04  0.00  0.00  0.67  0.00  0.00  0.29  0.00  0.00
  HS02004479HS02004480    1.00   0.01  0.00  0.00  0.99  0.00  0.00  0.00  0.12  0.00
  HS02004862HS02004870    1.00   0.00  0.00  0.00  1.00  0.00  0.00  0.00  0.04  0.00
  HS02004848HS02004852    1.00   0.04  0.00  0.00  0.96  0.00  0.00  0.00  0.64  0.00
  HS02004856HS02004862    1.00   0.00  0.05  0.00  0.95  0.00  0.00  0.00  0.83  0.00
  HS02004852HS02004856    1.00   0.04  0.00  0.00  0.96  0.00  0.00  0.00  0.81  0.00
  HS02004802HS02004478    1.00   0.04  0.00  0.00  0.96  0.00  0.00  0.00  0.02  0.00
  HS02004478WS02006287    1.00   0.05  0.00  0.00  0.73  0.22  0.00  0.00  0.65  0.00
  HS02004817HS02004807    1.00   0.00  0.04  0.00  0.96  0.00  0.00  0.00  0.01  0.00
  HS02004807HS02004802    1.00   0.04  0.00  0.00  0.95  0.00  0.00  0.00  0.00  0.00
  YS02001759YS02001757    1.00   0.00  0.00  0.00  1.00  0.00  0.00  0.00  0.16  0.00
  YS02001762YS02001759    1.00   0.00  0.00  0.00  1.00  0.00  0.00  0.00  0.03  0.00
  YS02001765YS02001762    1.00   0.00  0.00  0.00  1.00  0.00  0.00  0.00  0.14  0.00
  YS02001770YS02001767    1.00   0.00  0.00  0.00  1.00  0.00  0.00  0.00  0.00  0.00
  YS02001774YS02001770    1.00   0.00  0.04  0.00  0.96  0.00  0.00  0.00  0.03  0.00
  YS02001779YS02001774    1.00   0.00  0.00  0.00  1.00  0.00  0.00  0.00  0.19  0.00
  YS02001649YS02001757    1.00   0.00  0.00  0.00  1.00  0.00  0.00  0.00  0.16  0.00
  YS02001767YS02001765    1.00   0.00  0.00  0.00  1.00  0.00  0.00  0.00  0.00  0.00
  YS02006561YS02001783    1.00   0.06  0.00  0.00  0.34  0.61  0.00  0.00  0.48  0.00
  YS02001783YS02001784    1.00   0.00  0.06  0.00  0.94  0.00  0.00  0.00  0.00  0.00
  YS02001784YS02001785    1.00   0.00  0.00  0.00  1.00  0.00  0.00  0.00  0.18  0.00
  YS02001788YS02001790    1.00   0.00  0.00  0.00  0.38  0.62  0.00  0.00  0.34  0.00
  YS02001790YS02001791    1.00   0.00  0.00  0.00  0.34  0.66  0.00  0.00  0.40  0.00
  YS02001791YS02001793    1.00   0.00  0.00  0.00  0.38  0.62  0.00  0.00  0.03  0.00
  YS02001910YS02001907    1.00   0.00  0.00  0.00  0.99  0.00  0.00  0.01  0.12  0.00
  YS02001786YS02001788    1.00   0.00  0.00  0.00  0.37  0.63  0.00  0.00  0.00  0.00
  YS02001915YS02001910    1.00   0.00  0.00  0.00  0.99  0.01  0.00  0.00  0.16  0.00
  YS02001918YS02001915    1.00   0.00  0.00  0.00  0.99  0.00  0.00  0.00  0.54  0.00
  YS02001923YS02001920    1.00   0.00  0.00  0.00  1.00  0.00  0.00  0.00  0.82  0.00
  YS02001926YS02001923    1.00   0.00  0.02  0.00  0.15  0.00  0.82  0.00  0.00  0.00
  YS02001929YS02001926    1.00   0.00  0.04  0.00  0.96  0.00  0.00  0.00  0.74  0.00
  YS02001920YS02001918    1.00   0.00  0.00  0.00  1.00  0.00  0.00  0.00  0.00  0.00
  YS02001629YS02163301    1.00   0.05  0.00  0.00  0.95  0.00  0.00  0.00  0.00  0.00
  YS02001619YS02001622    1.00   0.04  0.00  0.00  0.96  0.00  0.00  0.00  0.00  0.00
  YS02001622YS02001625    1.00   0.04  0.00  0.00  0.96  0.00  0.00  0.00  0.05  0.00
  YS02001625YS02001629    1.00   0.04  0.02  0.00  0.92  0.00  0.02  0.00  0.00  0.00
  YS02163301YS02001633    1.00   0.00  0.05  0.00  0.95  0.00  0.00  0.00  0.00  0.00
  YS02163601YS02164001    1.00   0.00  0.03  0.00  0.97  0.00  0.00  0.00  0.00  0.00
  YS02164001YS02001641    1.00   0.00  0.02  0.00  0.97  0.00  0.00  0.00  0.06  0.00
  YS02001641YS02001644    1.00   0.00  0.00  0.00  1.00  0.00  0.00  0.00  0.00  0.00
  YS02001647YS02001649    1.00   0.00  0.05  0.00  0.95  0.00  0.00  0.00  0.01  0.00
  YS02006553YS02006556    1.00   0.00  0.00  0.00  1.00  0.00  0.00  0.00  0.03  0.00
  YS02006556YS02006558    1.00   0.00  0.00  0.00  1.00  0.00  0.00  0.00  0.00  0.00
  YSB6556YSB1171          1.00   0.01  0.02  0.00  0.96  0.00  0.00  0.00  0.00  0.00
  YS02001907YS02006553    1.00   0.00  0.01  0.00  0.99  0.00  0.00  0.00  0.00  0.00
  YS02006558YS02006561    1.00   0.06  0.00  0.00  0.15  0.79  0.00  0.00  0.48  0.00
  YS02001633YS02163601    1.00   0.00  0.00  0.00  1.00  0.00  0.00  0.00  0.15  0.00
  YS02001644YS02001647    1.00   0.00  0.05  0.00  0.95  0.00  0.00  0.00  0.00  0.00
  YS02001745YS02001748    1.00   0.00  0.00  0.00  0.90  0.01  0.00  0.10  0.04  0.00
  YS02001748YS02001751    1.00   0.00  0.00  0.00  0.96  0.04  0.00  0.00  0.15  0.00
  YS02001751YS02001754    1.00   0.00  0.00  0.00  0.93  0.00  0.00  0.06  0.02  0.00
  YS02001754YS02001757    1.00   0.00  0.00  0.00  1.00  0.00  0.00  0.00  0.18  0.00
  YS02001882YS02001884    1.00   0.05  0.00  0.00  0.95  0.00  0.00  0.00  0.00  0.00
  YS02001884YS02001887    1.00   0.02  0.01  0.00  0.96  0.00  0.00  0.00  0.00  0.00
  YS02001890YS02001895    1.00   0.00  0.05  0.00  0.95  0.00  0.00  0.00  0.00  0.00
  YS02001895YS02001898    1.00   0.05  0.00  0.00  0.94  0.00  0.01  0.00  0.00  0.00
  YS02001898YS02001901    1.00   0.05  0.00  0.00  0.95  0.00  0.00  0.00  0.01  0.00
  YS02001901YS02001904    1.00   0.05  0.00  0.00  0.95  0.00  0.00  0.00  0.00  0.00
  YS02001904YS02001907    1.00   0.00  0.05  0.00  0.95  0.00  0.00  0.00  0.00  0.00
  YS02001887YS02001890    1.00   0.00  0.00  0.00  0.99  0.00  0.01  0.00  0.00  0.00
  YS02001652YS02001649    1.00   0.00  0.00  0.00  1.00  0.00  0.00  0.00  0.17  0.00
  YS02001655YS02001652    1.00   0.00  0.00  0.00  0.94  0.00  0.00  0.06  0.02  0.00
  YS02001658YS02001655    1.00   0.00  0.04  0.00  0.92  0.03  0.00  0.00  0.10  0.00
  YS02001661YS02001658    1.00   0.04  0.00  0.00  0.89  0.06  0.00  0.00  0.11  0.00
  YS02001664YS02001661    1.00   0.04  0.00  0.00  0.91  0.05  0.00  0.00  0.20  0.00
  YSB1154YSB6556          1.00   0.04  0.00  0.00  0.96  0.00  0.00  0.00  0.02  0.00
  YSB1174YSB1171          1.00   0.02  0.01  0.00  0.97  0.00  0.00  0.00  0.00  0.00
  YSB1171HS02004479       1.00   0.01  0.00  0.00  0.98  0.00  0.00  0.00  0.10  0.00
  HS02004881HS02006253    1.00   0.02  0.00  0.00  0.50  0.01  0.00  0.47  0.31  0.00
  YS02001793JiankangQianchi    1.00   0.00  0.00  0.00  0.67  0.33  0.00  0.00  0.38  0.00
  YS02001757CaochengTiaoxuchi    1.00   0.00  0.08  0.00  0.92  0.00  0.00  0.00  0.00  0.00
  WSF200WS02003060        1.00   0.00  0.01  0.00  0.97  0.02  0.00  0.00  0.53  0.00
  1                       1.00   0.00  0.00  0.00  0.00  1.00  0.00  0.00  0.48  0.00
  
  
  *************************
  Conduit Surcharge Summary
  *************************
  
  ----------------------------------------------------------------------------
                                                           Hours        Hours 
                         --------- Hours Full --------   Above Full   Capacity
  Conduit                Both Ends  Upstream  Dnstream   Normal Flow   Limited
  ----------------------------------------------------------------------------
  WS02006229WS02006228        2.25      2.38      2.25      3.74         2.25
  WS02006256WS02006235        5.19      5.20      6.77      3.97         0.01
  WS02006253WS02006251        0.58      0.58      0.61      0.01         0.01
  WS02006252WS02006251        0.37      0.37      0.81      0.59         0.01
  WS02006251WS02006249        0.58      0.58      0.64      0.22         0.12
  WS02006249WS02006248        0.62      0.62      0.64      1.45         0.01
  WS02006248WS02006247        0.65      0.65      0.80      0.01         0.01
  WS02006247WS02006245        0.81      0.82      0.81      2.24         0.69
  WS02006245WS02006243        0.83      0.83      0.86      0.09         0.01
  WS02006243WS02006242        0.87      0.87      1.04      0.01         0.01
  WS02006242WS02006240        0.97      0.97      1.22      0.67         0.01
  WS02006240WS02006239        0.99      0.99      1.18      0.16         0.05
  WS02006239WS02006238        1.50      1.50      1.74      0.19         0.05
  WS02006238WS02006235        1.73      1.73      1.94      0.01         0.01
  WS02006235WS02006234        1.31      1.31      1.66      5.06         0.01
  WS02006234WS02006232        1.52      1.52      2.20      0.12         0.12
[...]
  YS02001770YS02001767        5.69      5.69      5.70      0.47         0.60
  YS02001774YS02001770        5.68      5.68      5.74      0.01         0.01
  YS02001779YS02001774        5.56      5.56      5.74      0.01         0.01
  YS02001649YS02001757        5.76      5.76      5.86      0.01         0.01
  YS02001767YS02001765        5.70      5.70      5.72      0.01         0.01
  YS02006561YS02001783        0.96      0.96      1.19      0.01         0.01
  YS02001783YS02001784        1.15      1.19      1.15      1.55         1.15
  YS02001784YS02001785        1.09      1.15      1.09      2.49         1.09
  YS02001788YS02001790        1.04      1.04      2.32      0.01         0.01
  YS02001790YS02001791        2.31      2.32      2.44      1.08         1.06
  YS02001791YS02001793        2.44      2.44      2.86      0.01         0.01
  YS02001910YS02001907        1.24      1.24      1.89      0.01         0.01
  YS02001786YS02001788        1.04      1.09      1.04      2.14         1.04
  YS02001915YS02001910        1.07      1.07      1.24      0.01         0.01
  YS02001918YS02001915        0.91      0.91      1.07      0.01         0.01
  YS02001923YS02001920        0.75      0.75      0.94      0.01         0.01
  YS02001920YS02001918        0.91      0.91      0.94      0.01         0.01
  YS02001629YS02163301        5.67      5.67      5.69      0.01         0.01
  YS02001619YS02001622        5.37      5.37      5.41      0.01         0.01
  YS02001622YS02001625        5.41      5.41      5.64      0.01         0.01
  YS02001625YS02001629        5.38      5.38      5.64      0.01         0.01
  YS02163301YS02001633        5.69      5.69      5.72      0.01         0.01
  YS02163601YS02164001        5.72      5.72      5.75      0.01         0.01
  YS02164001YS02001641        5.72      5.72      5.73      0.01         0.03
  YS02001641YS02001644        5.73      5.73      5.73      1.72         1.89
  YS02001647YS02001649        5.62      5.62      5.76      0.01         0.01
  YS02006553YS02006556        1.47      1.47      1.98      0.01         0.01
  YS02006556YS02006558        1.63      1.63      2.05      0.01         0.01
  YSB6556YSB1171              0.01      0.01      0.07      0.01         0.01
  YS02001907YS02006553        2.53      2.53      2.80      0.01         0.01
  YS02006558YS02006561        1.06      1.43      1.06      2.35         1.06
  YS02001633YS02163601        5.71      5.71      5.75      0.01         0.01
  YS02001644YS02001647        5.62      5.62      5.73      0.01         0.01
  YS02001745YS02001748        0.01      0.01      5.22      0.01         0.01
  YS02001748YS02001751        5.27      5.27      5.36      0.01         0.01
  YS02001751YS02001754        5.36      5.36      5.57      0.01         0.01
  YS02001754YS02001757        5.62      5.62      5.86      0.01         0.01
  YS02001882YS02001884        1.08      1.08      1.09      0.01         0.01
  YS02001884YS02001887        1.14      1.14      1.17      0.01         0.01
  YS02001890YS02001895        1.06      1.06      1.26      0.01         0.01
  YS02001895YS02001898        1.05      1.05      1.06      0.01         0.01
  YS02001898YS02001901        1.06      1.06      1.13      0.01         0.01
  YS02001901YS02001904        1.11      1.11      1.13      0.01         0.01
  YS02001904YS02001907        1.11      1.11      2.02      0.01         0.01
  YS02001887YS02001890        1.20      1.20      1.23      0.16         0.01
  YS02001652YS02001649        5.63      5.63      5.76      0.01         0.01
  YS02001655YS02001652        5.39      5.39      5.61      0.01         0.01
  YS02001658YS02001655        5.25      5.25      5.39      0.01         0.01
  YS02001661YS02001658        0.11      0.11      5.25      0.01         0.01
  YS02001664YS02001661        0.01      0.01      1.15      0.01         0.01
  HS02004881HS02006253        0.01      0.01      0.29      0.01         0.01
  YS02001793JiankangQianchi        2.74      2.74      4.69      0.01         0.01
  YS02001757CaochengTiaoxuchi        5.12      5.12      5.86      0.01         0.01
  
  
  ***************
  Pumping Summary
  ***************
  
  ---------------------------------------------------------------------------------------------------------
                                                  Min       Avg       Max     Total     Power    % Time Off
                        Percent   Number of      Flow      Flow      Flow    Volume     Usage    Pump Curve
  Pump                 Utilized   Start-Ups       LPS       LPS       LPS  10^6 ltr     Kw-hr    Low   High
  ---------------------------------------------------------------------------------------------------------
  CC-Pump-1               40.42           4      0.00    136.83    200.00     1.440      1.08    0.0    0.0
  CC-Pump-2               17.02           2      0.00     94.04    199.90     0.480      0.50    0.0    0.0
  JK-Pump-1               55.31           5      0.00    228.58    300.00     3.348     50.33    0.0    0.0
  JK-Pump-2               53.18           5      0.00    413.64    683.00     6.195     82.58    0.0   94.7
  XR-Pump-1               95.74           3      0.00     93.05     95.00     2.451     22.29    0.0    0.0
  XR-Pump-2               95.74           3      0.00     93.05     95.00     2.451     22.29    0.0    0.0
  XR-Pump-3               95.74           3      0.00     93.05     95.00     2.451     22.29    0.0    0.0
  XR-Pump-4               95.74           3      0.00     93.05     95.00     2.451     22.29    0.0    0.0
  
  
  ***************************
  Link Pollutant Load Summary
  ***************************
  
  ------------------------------------------------------------------------------------------
                                 COD            SS            TN            TP         NH4-N
  Link                            kg            kg            kg            kg            kg
  ------------------------------------------------------------------------------------------
  WS02003066WSF200           747.961      1403.724        19.984         1.776        10.576
  WS02006287WS02006284       319.450       608.050        10.314         1.015         5.678
  WS02006284WS02006280       319.925       608.825        10.360         1.021         5.707
  WS02006280WS02006229       319.878       608.735        10.357         1.020         5.705
  WS02006229WS02006228       740.648      1390.394        19.357         1.695        10.186
  WS02006256WS02006235       209.143       386.965         4.515         0.346         2.269
  WS02006253WS02006251        60.263       118.834         1.302         0.096         0.642
  WS02006252WS02006251       167.337       305.612         3.527         0.258         1.741
  WS02006251WS02006249       222.048       414.335         4.728         0.349         2.336
  WS02006249WS02006248       216.517       403.744         4.610         0.340         2.277
  WS02006248WS02006247       216.222       403.088         4.609         0.340         2.278
  WS02006247WS02006245       216.550       403.722         4.615         0.340         2.281
  WS02006245WS02006243       217.350       405.370         4.629         0.341         2.287
  WS02006243WS02006242       219.417       409.230         4.676         0.345         2.311
  WS02006242WS02006240       221.872       413.546         4.734         0.349         2.340
  WS02006240WS02006239       224.614       418.286         4.801         0.355         2.375
  WS02006239WS02006238       227.850       423.588         4.895         0.363         2.425
  WS02006238WS02006235       229.818       426.787         4.947         0.368         2.453
  WS02006235WS02006234       421.296       782.490         9.027         0.678         4.497
  WS02006234WS02006232       421.553       782.920         9.037         0.679         4.502
  WS02006232WS02006231       421.247       782.398         9.029         0.678         4.498
  WS02006231WS02006230       421.057       782.126         9.022         0.678         4.495
  WS02006230WS02006229       421.235       782.476         9.023         0.677         4.495
  WS02006228WS02006109       740.392      1389.931        19.345         1.694        10.180
  WS02006116WS02004401       757.321      1420.499        20.222         1.796        10.700
  WS02006115WS02006116       758.080      1421.851        20.246         1.798        10.713
  WS02006113WS02006111       747.573      1401.318        20.087         1.787        10.645
  WS02006112WS02006115       758.798      1423.062        20.282         1.802        10.734
  WS02006111WS02006112       747.482      1401.186        20.080         1.786        10.641
  WS02006110WS02006113       747.941      1401.929        20.107         1.790        10.657
  WS02006109WS02006110       748.600      1402.994        20.152         1.795        10.684
  WS02004411WS02004412       751.028      1409.054        20.101         1.788        10.643
  WS02004401WS02004402       756.533      1419.135        20.188         1.792        10.681
  WS02004413WS02003067       748.648      1404.972        20.001         1.777        10.585
  WS02004412WS02004413       749.967      1407.203        20.065         1.784        10.622
  WS02004410WS02004411       751.921      1410.644        20.128         1.790        10.657
  WS02004409WS02004410       752.794      1412.185        20.158         1.793        10.674
  WS02004407WS02004409       753.539      1413.537        20.177         1.795        10.684
  WS02004406WS02004407       753.835      1414.123        20.177         1.795        10.683
  WS02004405WS02004406       755.071      1416.272        20.234         1.801        10.716
  WS02004404WS02004405       755.690      1417.474        20.223         1.798        10.707
  WS02004403WS02004404       755.055      1416.537        20.133         1.787        10.650
  WS02004402WS02004403       755.765      1417.773        20.163         1.790        10.667
  WS02004139WS02001211      1369.983      2275.096       111.138        13.565        68.504
  WS02004138WS02004139      1376.385      2285.783       111.635        13.625        68.809
  WS02003067WS02003066       748.177      1404.103        19.992         1.777        10.581
  WS02001213WS02003059      1403.106      2327.127       114.576        13.999        70.664
  WS02001212WS02001213      1412.212      2342.218       115.313        14.089        71.119
  WS02001211WS02001212      1414.339      2345.695       115.496        14.112        71.232
  WS02003072WS02003073      2250.878      3889.483       144.505        17.024        87.471
  WS02003069WS02003072      2256.267      3898.277       144.943        17.077        87.742
  WS02003060WS02003069      2258.949      3902.852       145.099        17.095        87.835
  WS02003059WS02003060      1399.958      2321.798       114.352        13.972        70.528
  HS02004901HS02004770        13.093        25.473         0.248         0.019         0.116
  HS02004876HS02004881        45.511        90.338         0.999         0.073         0.491
  HS02004870HS02004876        34.379        68.099         0.798         0.060         0.395
  HS02004842HS02004848         6.456        12.343         0.134         0.009         0.062
  HS02004837HS02004842        11.056        19.635         0.603         0.068         0.356
  HS02004830HS02004837        70.295       122.721         4.643         0.552         2.827
  HS02004824HS02004830        71.066       123.975         4.715         0.561         2.871
  HS02004817HS02004824        97.158       176.396         5.254         0.596         3.134
  HS02004770HS02004777        49.660        97.708         1.021         0.069         0.472
  HS02004799HS02004480       162.310       310.808         4.263         0.379         2.209
  HS02004792HS02004799       147.264       280.103         4.028         0.367         2.105
  HS02004788HS02004792        82.812       157.676         2.666         0.255         1.440
  HS02004785HS02004788        51.117       100.041         1.172         0.089         0.567
  HS02004777HS02004785        50.443        98.936         1.112         0.081         0.530
  HS02004480HS02004478       204.804       395.146         4.971         0.429         2.543
  HS02004479HS02004480        46.128        90.113         1.037         0.091         0.538
  HS02004862HS02004870        25.798        50.335         0.628         0.050         0.314
  HS02004848HS02004852        10.251        19.884         0.210         0.014         0.097
  HS02004856HS02004862        17.523        34.747         0.350         0.023         0.164
  HS02004852HS02004856        10.255        19.888         0.210         0.014         0.097
  HS02004802HS02004478       115.329       214.028         5.397         0.592         3.168
  HS02004478WS02006287       319.663       608.420        10.331         1.017         5.689
  HS02004817HS02004807        95.850       174.298         5.129         0.580         3.057
  HS02004807HS02004802       115.587       214.432         5.429         0.596         3.189
  YS02001759YS02001757       306.946       563.278         6.131         0.427         2.998
  YS02001762YS02001759       184.103       340.318         3.809         0.270         1.879
  YS02001765YS02001762       185.399       343.552         3.853         0.273         1.903
  YS02001770YS02001767       188.602       351.915         3.759         0.254         1.829
  YS02001774YS02001770       308.627       596.908         5.951         0.397         2.878
  YS02001779YS02001774       308.047       595.777         6.039         0.411         2.938
  YS02001649YS02001757       397.959       722.487         8.025         0.550         3.868
  YS02001767YS02001765       187.213       347.748         3.899         0.277         1.927
  YS02006561YS02001783      1019.253      1888.913        21.377         1.596        10.639
  YS02001783YS02001784      1019.164      1888.788        21.373         1.596        10.637
  YS02001784YS02001785      1026.512      1900.572        22.086         1.685        11.083
  YS02001788YS02001790      1027.174      1901.670        22.162         1.695        11.131
  YS02001790YS02001791      1028.380      1903.641        22.274         1.709        11.201
  YS02001791YS02001793      1028.399      1903.678        22.272         1.708        11.199
  YS02001910YS02001907       391.197       721.587         9.384         0.718         4.808
  YS02001786YS02001788      1026.747      1900.978        22.115         1.689        11.101
  YS02001915YS02001910       391.256       721.677         9.336         0.711         4.775
  YS02001918YS02001915       191.223       338.063         5.231         0.473         2.812
  YS02001923YS02001920       167.733       298.923         3.226         0.227         1.568
  YS02001926YS02001923       165.260       294.605         3.121         0.216         1.508
  YS02001929YS02001926       164.210       292.787         3.065         0.210         1.475
  YS02001920YS02001918       188.613       332.695         5.153         0.467         2.770
  YS02001629YS02163301        96.150       170.024         2.029         0.131         0.947
  YS02001619YS02001622       175.886       321.159         3.602         0.236         1.684
  YS02001622YS02001625       174.692       319.259         3.573         0.234         1.671
  YS02001625YS02001629        97.237       171.801         2.054         0.132         0.958
  YS02163301YS02001633        96.522       170.914         2.032         0.132         0.949
  YS02163601YS02164001       405.794       733.288         7.900         0.562         3.784
  YS02164001YS02001641       405.291       732.438         7.880         0.560         3.773
  YS02001641YS02001644       405.356       732.469         7.876         0.560         3.770
  YS02001647YS02001649       504.107       926.259        10.043         0.693         4.807
  YS02006553YS02006556       685.222      1259.120        14.749         1.130         7.425
  YS02006556YS02006558       685.210      1259.091        14.721         1.126         7.406
  YSB6556YSB1171              26.523        51.968         0.537         0.045         0.272
  YS02001907YS02006553       685.342      1259.360        14.757         1.131         7.430
  YS02006558YS02006561      1019.276      1888.946        21.377         1.596        10.639
  YS02001633YS02163601       406.515       734.408         7.881         0.558         3.768
  YS02001644YS02001647       510.262       937.296        10.137         0.700         4.849
  YS02001745YS02001748       250.450       468.142         5.539         0.386         2.758
  YS02001748YS02001751       248.253       464.023         5.564         0.393         2.783
  YS02001751YS02001754       247.252       462.376         5.544         0.392         2.775
  YS02001754YS02001757       248.008       463.507         5.709         0.415         2.881
  YS02001882YS02001884         3.258         5.647         0.066         0.005         0.033
  YS02001884YS02001887         6.748        11.951         0.133         0.010         0.066
  YS02001890YS02001895       450.992       846.502         8.302         0.624         4.050
  YS02001895YS02001898       450.856       846.338         8.296         0.624         4.046
  YS02001898YS02001901       450.668       846.022         8.292         0.623         4.044
  YS02001901YS02001904       450.539       845.848         8.299         0.625         4.049
  YS02001904YS02001907       450.772       846.207         8.352         0.632         4.083
  YS02001887YS02001890       468.267       880.762         8.645         0.653         4.223
  YS02001652YS02001649       204.243       379.228         4.122         0.297         1.934
  YS02001655YS02001652       204.745       380.053         4.135         0.298         1.941
  YS02001658YS02001655       204.099       379.034         4.038         0.285         1.878
  YS02001661YS02001658       207.979       385.980         4.117         0.291         1.914
  YS02001664YS02001661       219.225       404.118         4.377         0.308         2.033
  YSB1154YSB6556              26.085        51.270         0.486         0.038         0.239
  YSB1174YSB1171              18.022        35.563         0.362         0.029         0.181
  YSB1171HS02004479           46.094        90.059         1.040         0.092         0.541
  HS02004881HS02006253        51.639       102.914         1.111         0.081         0.545
  YS02001793JiankangQianchi      1028.907      1904.463        22.296         1.711        11.213
  YS02001757CaochengTiaoxuchi       507.198       918.943        10.770         0.782         5.312
  WSF200WS02003060           748.054      1403.826        20.007         1.779        10.591
  1                         2257.146      3898.827       145.323        17.130        87.992
  CC-Pump-1                  125.166       228.568         2.635         0.193         1.300
  CC-Pump-2                   41.855        76.447         0.881         0.064         0.435
  JK-Pump-1                  247.636       463.165         5.191         0.391         2.589
  JK-Pump-2                  537.267      1007.631        11.228         0.846         5.597
  XR-Pump-1                  345.028       572.985        27.986         3.416        17.250
  XR-Pump-2                  345.028       572.985        27.986         3.416        17.250
  XR-Pump-3                  345.028       572.985        27.986         3.416        17.250
  XR-Pump-4                  345.028       572.985        27.986         3.416        17.250
  

  Analysis begun on:  Thu Jul 15 16:42:52 2021
  Analysis ended on:  Thu Jul 15 16:42:55 2021
  Total elapsed time: 00:00:03