
  EPA STORM WATER MANAGEMENT MODEL - VERSION 5.1 (Build 5.3.0.dev0)
  --------------------------------------------------------------

  WARNING 04: minimum elevation drop used for Conduit WS02004404WS02004405
  WARNING 03: negative offset ignored for Link YS02001904YS02001907
  
  *********************************************************
  NOTE: The summary statistics displayed in this report are
  based on results found at every computational time step,  
  not just on results from each reporting time step.
  *********************************************************
  
  ****************
  Analysis Options
  ****************
  Flow Units ............... LPS
  Process Models:
    Rainfall/Runoff ........ YES
    RDII ................... NO
    Snowmelt ............... NO
    Groundwater ............ NO
    Flow Routing ........... YES
    Ponding Allowed ........ NO
    Water Quality .......... YES
  Infiltration Method ...... HORTON
  Flow Routing Method ...... DYNWAVE
  Surcharge Method ......... EXTRAN
  Starting Date ............ 08/28/2015 08:00:00
  Ending Date .............. 08/28/2015 15:50:00
  Antecedent Dry Days ...... 8.0
  Report Time Step ......... 00:01:00
  Wet Time Step ............ 00:01:00
  Dry Time Step ............ 00:01:00
  Routing Time Step ........ 5.00 sec
  Variable Time Step ....... YES
  Maximum Trials ........... 8
  Number of Threads ........ 4
  Head Tolerance ........... 0.001500 m
  
  
  **************************        Volume         Depth
  Runoff Quantity Continuity     hectare-m            mm
  **************************     ---------       -------
  Total Precipitation ......         6.144        13.452
  Evaporation Loss .........         0.000         0.000
  Infiltration Loss ........         1.064         2.328
  Surface Runoff ...........         4.147         9.079
  Final Storage ............         0.935         2.047
  Continuity Error (%) .....        -0.020
  
  
  **************************           COD            SS            TN            TP         NH4-N
  Runoff Quality Continuity             kg            kg            kg            kg            kg
  **************************    ----------    ----------    ----------    ----------    ----------
  Initial Buildup ..........     41378.656     70582.865      1804.177       168.684      1032.807
  Surface Buildup ..........        21.799        40.924         2.400         0.218         1.395
  Wet Deposition ...........         0.000         0.000         0.000         0.000         0.000
  Sweeping Removal .........         0.000         0.000         0.000         0.000         0.000
  Infiltration Loss ........        97.311       184.943         1.849         0.130         0.881
  BMP Removal ..............         0.000         0.000         0.000         0.000         0.000
  Surface Runoff ...........      3769.819      7064.251        72.781         4.964        34.599
  Remaining Buildup ........     37531.916     63371.884      1731.919       163.806       998.709
  Continuity Error (%) .....         0.003         0.004         0.002         0.001         0.001
  
  
  **************************        Volume        Volume
  Flow Routing Continuity        hectare-m      10^6 ltr
  **************************     ---------     ---------
  Dry Weather Inflow .......         0.616         6.165
  Wet Weather Inflow .......         4.145        41.453
  Groundwater Inflow .......         0.000         0.000
  RDII Inflow ..............         0.000         0.000
  External Inflow ..........         0.102         1.024
  External Outflow .........         1.849        18.488
  Flooding Loss ............         2.557        25.572
  Evaporation Loss .........         0.000         0.000
  Exfiltration Loss ........         0.000         0.000
  Initial Stored Volume ....         0.076         0.761
  Final Stored Volume ......         0.642         6.415
  Continuity Error (%) .....        -2.172
  
  
  **************************           COD            SS            TN            TP         NH4-N
  Quality Routing Continuity            kg            kg            kg            kg            kg
  **************************    ----------    ----------    ----------    ----------    ----------
  Dry Weather Inflow .......      1541.201      2465.922       147.955        18.494        92.472
  Wet Weather Inflow .......      3769.207      7063.262        72.767         4.964        34.593
  Groundwater Inflow .......         0.000         0.000         0.000         0.000         0.000
  RDII Inflow ..............         0.000         0.000         0.000         0.000         0.000
  External Inflow ..........       183.418       293.469        17.608         2.201        11.005
  External Outflow .........      2262.395      3905.955       145.526        17.151        88.109
  Flooding Loss ............      2553.266      4748.426        65.208         5.650        34.199
  Exfiltration Loss ........         0.000         0.000         0.000         0.000         0.000
  Mass Reacted .............         0.000         0.000         0.000         0.000         0.000
  Initial Stored Mass ......         0.000         0.000         0.000         0.000         0.000
  Final Stored Mass ........       571.062       987.330        24.769         2.627        14.295
  Continuity Error (%) .....         1.950         1.842         1.187         0.901         1.062
  
  
  *************************
  Highest Continuity Errors
  *************************
  Node HS02004842 (13.41%)
  Node JK-storage (-10.01%)
  Node YS02001884 (9.91%)
  Node HS02004817 (2.53%)
  Node YSB1171 (2.46%)
  
  
  ***************************
  Time-Step Critical Elements
  ***************************
  Link WS02006252WS02006251 (50.28%)
  Link WS02006280WS02006229 (14.53%)
  Link WS02006238WS02006235 (8.73%)
  Link YS02006556YS02006558 (5.70%)
  Link YS02001793JiankangQianchi (3.39%)
  
  
  ********************************
  Highest Flow Instability Indexes
  ********************************
  Link WS02006113WS02006111 (42)
  Link YS02163601YS02164001 (33)
  Link YS02163301YS02001633 (32)
  Link YS02001629YS02163301 (32)
  Link YS02001619YS02001622 (30)
  
  
  *************************
  Routing Time Step Summary
  *************************
  Minimum Time Step           :     0.50 sec
  Average Time Step           :     1.51 sec
  Maximum Time Step           :     5.00 sec
  Percent in Steady State     :    -0.00
  Average Iterations per Step :     3.85
  Percent Not Converging      :    13.91
  
  
  ***************************
  Subcatchment Runoff Summary
  ***************************
  
  ------------------------------------------------------------------------------------------------------------------------------
                            Total      Total      Total      Total     Imperv       Perv      Total       Total     Peak  Runoff
                           Precip      Runon       Evap      Infil     Runoff     Runoff     Runoff      Runoff   Runoff   Coeff
  Subcatchment                 mm         mm         mm         mm         mm         mm         mm    10^6 ltr      LPS
  ------------------------------------------------------------------------------------------------------------------------------
  sub0                      13.45       0.00       0.00       0.63      12.47       0.31      12.77        0.01     3.75   0.950
  sub1                      13.45       0.00       0.00       1.12      11.88       0.36      12.24        0.08    25.66   0.910
  sub2                      13.45       0.00       0.00       4.44       8.39       0.53       8.92        0.08    25.29   0.663
  sub3                      13.45       0.00       0.00       4.56       8.35       0.42       8.77        0.20    55.75   0.652
  sub4                      13.45       0.00       0.00       1.22      11.71       0.26      11.97        0.25    65.52   0.890
  sub5                      13.45       0.00       0.00       0.68      12.41       0.26      12.67        0.14    44.76   0.942
  sub7                      13.45       0.00       0.00       0.86      12.18       0.35      12.53        0.04    14.26   0.931
  sub8                      13.45       0.00       0.00       0.87      12.17       0.34      12.50        0.08    26.26   0.930
  sub9                      13.45       0.00       0.00       0.88      12.17       0.33      12.50        0.06    19.64   0.929
  sub10                     13.45       0.00       0.00       0.78      12.29       0.29      12.58        0.14    44.00   0.935
  sub11                     13.45       0.00       0.00       0.77      12.30       0.31      12.61        0.15    48.45   0.938
  sub12                     13.45       0.00       0.00       1.25      11.66       0.50      12.16        0.11    38.10   0.904
  sub14                     13.45       0.00       0.00       0.88      12.16       0.33      12.49        0.12    38.67   0.929
  sub15                     13.45       0.00       0.00       3.37       9.35       0.66      10.01        0.17    57.01   0.744
  sub16                     13.45       0.00       0.00       3.56       8.97       0.88       9.85        0.10    37.63   0.732
  sub17                     13.45       0.00       0.00       3.47       9.10       0.84       9.94        0.09    30.67   0.739
  sub22                     13.45       0.00       0.00       4.98       7.63       0.81       8.43        0.53   184.54   0.627
  sub23                     13.45       0.00       0.00       4.17       8.43       0.81       9.24        0.44   154.22   0.687
  sub60                     13.45       0.00       0.00       1.53       9.85       0.09       9.93        3.01   438.14   0.738
  sub61                     13.45       0.00       0.00       2.16       9.95       0.12      10.07        3.11   536.45   0.749
  sub62                     13.45       0.00       0.00       0.98      10.84       0.10      10.94        3.36   552.35   0.813
  sub63                     13.45       0.00       0.00       3.77       8.69       0.14       8.83        2.67   492.63   0.656
  sub64                     13.45       0.00       0.00       1.93       9.45       0.09       9.54        2.90   416.72   0.709
  sub65                     13.45       0.00       0.00       1.67       9.61       0.08       9.70        2.98   423.09   0.721
  sub66                     13.45       0.00       0.00       3.81       8.10       0.09       8.18        2.51   380.66   0.608
  sub67                     13.45       0.00       0.00       0.95      11.38       0.13      11.51        3.55   679.52   0.856
  sub68                     13.45       0.00       0.00       1.75      10.45       0.13      10.59        3.26   586.26   0.787
  sub69                     13.45       0.00       0.00       1.83      10.79       0.19      10.98        2.57   544.72   0.816
  sub70                     13.45      11.20       0.00       7.51      14.65       0.88      15.52        3.55   494.81   0.630
  sub71                     13.45       0.00       0.00       0.99      10.58       0.09      10.67        2.52   389.24   0.793
  sub72                     13.45       0.00       0.00       0.89       8.56       0.05       8.61        1.75   189.18   0.640
  1                         13.45      15.11       0.00       1.37      16.56       4.63      21.19        4.98   484.42   0.742
  2                         13.45       0.00       0.00       3.02       3.21       1.96       5.17        2.07   340.45   0.384
  
  
  ****************************
  Subcatchment Washoff Summary
  ****************************
  
  ------------------------------------------------------------------------------------------
                                 COD            SS            TN            TP         NH4-N
  Subcatchment                    kg            kg            kg            kg            kg
  ------------------------------------------------------------------------------------------
  sub0                         2.670         5.197         0.046         0.004         0.022
  sub1                        11.241        22.423         0.210         0.015         0.101
  sub2                         6.894        13.384         0.145         0.010         0.067
  sub3                        16.924        32.573         0.350         0.024         0.161
  sub4                        25.772        51.904         0.510         0.031         0.245
  sub5                        25.778        50.682         0.460         0.035         0.223
  sub7                         5.751        11.638         0.108         0.007         0.052
  sub8                         8.581        17.755         0.171         0.010         0.082
  sub9                         7.353        15.005         0.142         0.009         0.068
  sub10                       21.202        42.223         0.389         0.028         0.188
  sub11                       20.657        41.614         0.386         0.026         0.187
  sub12                       17.724        35.094         0.321         0.024         0.155
  sub14                       15.732        31.800         0.298         0.020         0.144
  sub15                       20.231        39.321         0.389         0.028         0.182
  sub16                       13.129        25.518         0.249         0.019         0.117
  sub17                       12.049        23.208         0.222         0.017         0.105
  sub22                       62.582       119.432         1.186         0.090         0.554
  sub23                       36.683        72.439         0.776         0.051         0.357
  sub60                      243.520       456.962         4.842         0.298         2.321
  sub61                      302.151       564.434         5.627         0.386         2.710
  sub62                      313.722       596.076         6.119         0.388         2.938
  sub63                      223.275       410.850         4.468         0.314         2.075
  sub64                      305.877       553.773         5.626         0.410         2.687
  sub65                      313.037       569.066         5.795         0.415         2.772
  sub66                      176.068       321.340         3.608         0.236         1.687
  sub67                      466.222       877.505         8.365         0.616         4.045
  sub68                      332.037       626.413         6.347         0.429         3.034
  sub69                      298.258       568.561         5.590         0.393         2.674
  sub70                      502.897       962.303        10.037         0.699         4.710
  sub71                      206.745       396.330         4.242         0.246         2.030
  sub72                      164.385       293.107         3.069         0.210         1.476
  1                          349.075       671.606         7.102         0.495         3.297
  2                           42.749        75.577         1.214         0.073         0.518
  ------------------------------------------------------------------------------------------
  System                    4570.974      8595.115        88.408         6.057        41.983
  
  
  ******************
  Node Depth Summary
  ******************
  
  ---------------------------------------------------------------------------------
                                 Average  Maximum  Maximum  Time of Max    Reported
                                   Depth    Depth      HGL   Occurrence   Max Depth
  Node                 Type       Meters   Meters   Meters  days hr:min      Meters
  ---------------------------------------------------------------------------------
  WS02001211           JUNCTION     0.76     0.85     5.69     0  03:07        0.85
  WS02001212           JUNCTION     0.47     0.58     5.64     0  03:06        0.58
  WS02001213           JUNCTION     0.71     0.85     5.62     0  03:06        0.85
  WS02003069           JUNCTION     0.50     0.72     5.30     0  03:05        0.72
  WS02003072           JUNCTION     0.56     0.76     5.13     0  03:06        0.76
  WS02003073           JUNCTION     0.34     0.48     4.54     0  03:06        0.48
  WS02003060           JUNCTION     0.44     0.63     5.57     0  03:05        0.63
  WS02003066           JUNCTION     0.23     0.39     5.94     0  03:04        0.39
  WS02003059           JUNCTION     0.76     0.91     5.60     0  03:05        0.91
  WS02003067           JUNCTION     0.58     0.82     6.14     0  03:04        0.82
  WS02004401           JUNCTION     0.69     1.23     7.23     0  03:01        1.23
  WS02004402           JUNCTION     0.72     1.22     7.18     0  03:01        1.22
  WS02004403           JUNCTION     0.74     1.20     7.13     0  03:01        1.19
  WS02004404           JUNCTION     0.81     1.24     7.09     0  03:01        1.24
  WS02004406           JUNCTION     0.81     1.16     6.99     0  03:02        1.16
  WS02004409           JUNCTION     0.50     0.96     6.73     0  03:03        0.96
  WS02004410           JUNCTION     0.52     0.95     6.67     0  03:03        0.95
  WS02004411           JUNCTION     0.53     0.93     6.61     0  03:03        0.93
  WS02004412           JUNCTION     0.55     0.90     6.54     0  03:04        0.90
  WS02004413           JUNCTION     0.70     1.02     6.49     0  03:04        1.02
  WS02004405           JUNCTION     0.80     1.21     7.06     0  03:00        1.21
  WS02006109           JUNCTION     0.78     1.65     8.27     0  03:02        1.64
  WS02006110           JUNCTION     0.77     1.44     8.03     0  03:02        1.44
  WS02006111           JUNCTION     0.24     0.88     7.59     0  03:02        0.88
  WS02006112           JUNCTION     0.87     1.55     7.44     0  03:01        1.55
  WS02006113           JUNCTION     0.35     0.92     7.81     0  03:02        0.92
  WS02006115           JUNCTION     0.59     1.21     7.35     0  03:02        1.21
  WS02006116           JUNCTION     0.67     1.26     7.30     0  03:02        1.26
  WS02006230           JUNCTION     0.78     1.87     8.62     0  03:02        1.87
  WS02006231           JUNCTION     0.53     1.52     8.64     0  03:02        1.51
  WS02006232           JUNCTION     0.66     1.62     8.66     0  03:02        1.62
  WS02006234           JUNCTION     0.59     1.52     8.68     0  03:01        1.52
  WS02006235           JUNCTION     0.63     1.54     8.70     0  03:01        1.53
  WS02006238           JUNCTION     0.65     1.56     8.70     0  03:01        1.54
  WS02006240           JUNCTION     0.54     1.40     8.69     0  03:01        1.40
  WS02006242           JUNCTION     0.58     1.43     8.70     0  03:01        1.42
  WS02006243           JUNCTION     0.46     1.35     8.77     0  04:11        1.27
  WS02006245           JUNCTION     0.43     1.24     8.72     0  04:11        1.20
  WS02006247           JUNCTION     0.43     1.20     8.70     0  03:00        1.19
  WS02006248           JUNCTION     0.37     1.10     8.69     0  02:57        1.10
  WS02006249           JUNCTION     0.39     1.09     8.69     0  02:55        1.09
  WS02006239           JUNCTION     0.60     1.49     8.70     0  03:01        1.48
  WS02006251           JUNCTION     0.36     1.29     8.96     0  07:02        1.12
  WS02006252           JUNCTION     0.22     0.85     9.09     0  07:02        0.68
  WS02006253           JUNCTION     0.40     1.36     9.01     0  07:02        1.16
  WS02006256           JUNCTION     1.81     2.35     9.28     0  00:28        2.35
  WS02004138           JUNCTION     0.18     0.20     7.45     0  00:00        0.19
  WS02004139           JUNCTION     0.71     0.79     5.70     0  03:07        0.79
  WS02004407           JUNCTION     0.22     0.40     6.71     0  03:03        0.40
  WS02006228           JUNCTION     0.80     1.82     8.47     0  03:02        1.82
  WS02006229           JUNCTION     0.78     1.90     8.59     0  03:02        1.89
  WS02006280           JUNCTION     0.07     0.30     8.57     0  03:05        0.30
  WS02006284           JUNCTION     0.38     0.65     9.04     0  03:02        0.64
  WS02006287           JUNCTION     0.11     0.39     9.34     0  03:02        0.39
  WSF200               JUNCTION     0.22     0.44     5.67     0  03:04        0.44
  HS02004901           JUNCTION     0.13     0.38    10.20     0  03:01        0.37
  HS02004881           JUNCTION     0.01     0.05     9.08     0  03:01        0.05
  HS02004876           JUNCTION     0.05     0.16     9.19     0  03:01        0.16
  HS02004870           JUNCTION     0.02     0.09     9.38     0  03:01        0.09
  HS02004862           JUNCTION     0.02     0.11     9.49     0  03:01        0.11
  HS02004856           JUNCTION     0.08     0.15     9.58     0  03:01        0.15
  HS02004852           JUNCTION     0.01     0.07     9.59     0  03:02        0.07
  HS02004848           JUNCTION     0.01     0.07     9.67     0  03:01        0.07
  HS02004842           JUNCTION     0.34     0.40     9.67     0  03:01        0.40
  HS02004837           JUNCTION     0.03     0.09     9.67     0  03:01        0.09
  HS02004830           JUNCTION     0.04     0.10     9.57     0  03:02        0.10
  HS02004824           JUNCTION     0.03     0.13     9.53     0  03:02        0.13
  HS02004817           JUNCTION     0.45     0.69     9.54     0  03:02        0.69
  HS02004807           JUNCTION     0.13     0.36     9.53     0  03:02        0.36
  HS02004802           JUNCTION     0.17     0.39     9.52     0  03:02        0.39
  HS02004799           JUNCTION     0.13     0.46     9.68     0  03:01        0.46
  HS02004792           JUNCTION     0.04     0.22     9.74     0  03:01        0.21
  HS02004788           JUNCTION     0.03     0.16    10.05     0  03:02        0.16
  HS02004785           JUNCTION     0.05     0.25    10.15     0  03:02        0.25
  HS02004777           JUNCTION     0.15     0.39    10.19     0  03:01        0.39
  HS02004770           JUNCTION     0.13     0.37    10.20     0  03:01        0.36
  HS02004480           JUNCTION     0.09     0.38     9.62     0  03:01        0.38
  HS02004479           JUNCTION     0.13     0.42     9.62     0  03:01        0.42
  HS02004478           JUNCTION     0.07     0.28     9.50     0  03:01        0.28
  YS02001745           JUNCTION     0.71     0.95     8.47     0  03:01        0.95
  YS02001748           JUNCTION     1.10     1.43     8.51     0  02:33        1.39
  YS02001751           JUNCTION     1.28     1.58     8.46     0  03:17        1.58
  YS02001754           JUNCTION     1.53     1.85     8.46     0  03:18        1.84
  YS02001762           JUNCTION     1.72     2.05     8.45     0  03:18        2.04
  YS02001765           JUNCTION     1.68     2.00     8.45     0  03:18        1.99
  YS02001767           JUNCTION     1.64     1.95     8.44     0  03:17        1.95
  YS02001770           JUNCTION     1.63     1.94     8.43     0  03:01        1.94
  YS02001774           JUNCTION     1.70     1.99     8.41     0  03:09        1.99
  YS02001779           JUNCTION     1.45     1.68     8.37     0  02:30        1.68
  YS02001882           JUNCTION     0.56     1.64     8.35     0  03:01        1.63
  YS02001884           JUNCTION     0.65     1.74     8.35     0  03:00        1.73
  YS02001759           JUNCTION     1.76     2.09     8.45     0  03:18        2.08
  YS02001887           JUNCTION     0.73     1.82     8.35     0  03:00        1.81
  YS02001890           JUNCTION     0.76     1.81     8.32     0  02:50        1.81
  YS02001898           JUNCTION     0.53     1.56     8.30     0  02:55        1.56
  YS02001901           JUNCTION     0.64     1.68     8.29     0  02:55        1.67
  YS02001904           JUNCTION     0.62     1.64     8.27     0  02:50        1.63
  YS02001907           JUNCTION     0.95     1.96     8.25     0  02:50        1.96
  YS02001910           JUNCTION     0.74     1.79     8.29     0  02:51        1.78
  YS02001915           JUNCTION     0.54     1.60     8.32     0  02:51        1.59
  YS02001918           JUNCTION     0.29     1.28     8.35     0  02:51        1.27
  YS02001619           JUNCTION     1.24     1.61     8.54     0  02:30        1.49
  YS02001629           JUNCTION     1.58     1.85     8.40     0  02:30        1.84
  YS02001641           JUNCTION     1.68     1.94     8.37     0  02:56        1.93
  YS02001644           JUNCTION     1.68     1.92     8.35     0  02:39        1.92
  YS02001652           JUNCTION     1.54     2.03     8.63     0  02:26        1.85
  YS02001655           JUNCTION     1.30     2.07     8.92     0  02:26        1.62
  YS02001920           JUNCTION     0.39     1.36     8.37     0  02:51        1.34
  YS02001923           JUNCTION     0.23     1.12     8.38     0  02:51        1.10
  YS02001926           JUNCTION     0.28     0.94     8.39     0  02:51        0.94
  YS02001929           JUNCTION     0.16     0.71     8.40     0  02:52        0.71
  YS02001658           JUNCTION     1.04     2.01     9.15     0  02:29        1.38
  YS02001661           JUNCTION     0.82     1.87     9.27     0  02:48        1.24
  YS02001664           JUNCTION     0.37     0.56     8.49     0  02:48        0.56
  YS02001622           JUNCTION     1.26     1.59     8.49     0  02:30        1.50
  YS02001633           JUNCTION     1.67     1.95     8.40     0  02:50        1.94
  YS02001649           JUNCTION     1.73     2.05     8.44     0  02:43        2.04
  YS02001757           JUNCTION     1.85     2.19     8.45     0  03:17        2.18
  YS02001895           JUNCTION     0.52     1.57     8.31     0  03:06        1.56
  YS02001625           JUNCTION     1.54     1.78     8.38     0  02:30        1.78
  YS02163301           JUNCTION     1.61     1.89     8.41     0  02:56        1.88
  YS02163601           JUNCTION     1.72     1.99     8.39     0  02:58        1.98
  YS02164001           JUNCTION     1.66     1.92     8.38     0  02:56        1.91
  YS02001647           JUNCTION     1.52     1.80     8.41     0  02:48        1.78
  YSB1154              JUNCTION     0.27     0.57     9.62     0  03:01        0.57
  YSB6556              JUNCTION     0.16     0.45     9.62     0  03:02        0.45
  YSB1174              JUNCTION     0.22     0.52     9.62     0  03:01        0.51
  YSB1171              JUNCTION     0.42     0.72     9.62     0  03:01        0.72
  YS02006553           JUNCTION     0.95     2.16     8.45     0  02:56        1.96
  YS02006561           JUNCTION     0.31     1.74     8.40     0  02:56        1.09
  YS02006556           JUNCTION     0.92     2.38     8.69     0  02:56        1.93
  YS02006558           JUNCTION     0.96     2.50     8.77     0  02:56        1.97
  YS02001783           JUNCTION     0.53     2.29     8.43     0  02:56        1.47
  YS02001784           JUNCTION     0.54     2.29     8.36     0  02:56        1.41
  YS02001786           JUNCTION     0.48     2.20     8.23     0  02:56        1.26
  YS02001788           JUNCTION     0.40     2.28     8.26     0  02:56        1.13
  YS02001790           JUNCTION     0.50     1.96     7.60     0  02:56        1.29
  YS02001791           JUNCTION     0.44     1.59     7.06     0  02:56        1.27
  YS02001793           JUNCTION     0.57     1.86     6.69     0  02:56        1.80
  WSC                  OUTFALL      0.34     0.48     1.15     0  03:07        0.48
  JK-storage           STORAGE      2.48     5.80     6.60     0  02:20        5.80
  CC-storage           STORAGE      1.12     1.45     8.45     0  03:16        1.45
  XR-storage           STORAGE      6.50     7.72     5.72     0  02:55        7.72
  
  
  *******************
  Node Inflow Summary
  *******************
  
  -------------------------------------------------------------------------------------------------
                                  Maximum  Maximum                  Lateral       Total        Flow
                                  Lateral    Total  Time of Max      Inflow      Inflow     Balance
                                   Inflow   Inflow   Occurrence      Volume      Volume       Error
  Node                 Type           LPS      LPS  days hr:min    10^6 ltr    10^6 ltr     Percent
  -------------------------------------------------------------------------------------------------
  WS02001211           JUNCTION      7.35   393.18     0  03:15       0.207        9.97       0.399
  WS02001212           JUNCTION      0.00   399.07     0  03:15           0        9.93       0.216
  WS02001213           JUNCTION      0.00   404.23     0  03:14           0        9.91       0.296
  WS02003069           JUNCTION      0.32  1333.45     0  03:05     0.00902        18.5       0.164
  WS02003072           JUNCTION      0.00  1333.07     0  03:06           0        18.5       0.203
  WS02003073           JUNCTION      1.82  1334.94     0  03:06      0.0514        18.5       0.232
  WS02003060           JUNCTION     16.53  1333.54     0  03:05       0.466        18.6       0.155
  WS02003066           JUNCTION      0.00   938.92     0  03:04           0        8.27       0.042
  WS02003059           JUNCTION      0.00   410.76     0  03:14           0        9.88       0.395
  WS02003067           JUNCTION      0.00   938.53     0  03:04           0        8.28       0.091
  WS02004401           JUNCTION      0.00   939.03     0  03:02           0        8.45       0.186
  WS02004402           JUNCTION      0.00   939.10     0  03:02           0        8.44       0.182
  WS02004403           JUNCTION      0.00   939.24     0  03:03           0        8.42       0.171
  WS02004404           JUNCTION      0.16   939.55     0  03:03     0.00457        8.41       0.134
  WS02004406           JUNCTION      0.00   939.92     0  03:03           0        8.38       0.327
  WS02004409           JUNCTION      0.00   939.79     0  03:03           0        8.35       0.128
  WS02004410           JUNCTION      0.00   938.81     0  03:03           0        8.34       0.156
  WS02004411           JUNCTION      0.00   938.36     0  03:03           0        8.33       0.167
  WS02004412           JUNCTION      0.00   938.27     0  03:03           0        8.32       0.190
  WS02004413           JUNCTION      0.00   938.32     0  03:04           0         8.3       0.297
  WS02004405           JUNCTION      0.04   939.77     0  03:03     0.00107         8.4       0.200
  WS02006109           JUNCTION      1.23   914.84     0  03:02      0.0347        8.44       0.123
  WS02006110           JUNCTION      0.00   914.93     0  03:02           0        8.43       0.152
  WS02006111           JUNCTION      0.00   915.22     0  03:02           0        8.42       0.009
  WS02006112           JUNCTION     30.67   939.02     0  03:02      0.0853         8.5       0.275
  WS02006113           JUNCTION      0.00   915.00     0  03:02           0        8.42       0.062
  WS02006115           JUNCTION      0.00   939.03     0  03:02           0        8.48       0.155
  WS02006116           JUNCTION      0.00   938.99     0  03:02           0        8.46       0.132
  WS02006230           JUNCTION     10.28   533.98     0  07:03        0.29           6       0.105
  WS02006231           JUNCTION      0.00   523.27     0  07:03           0        5.71      -0.003
  WS02006232           JUNCTION      0.00   523.79     0  07:03           0        5.72       0.159
  WS02006234           JUNCTION      0.00   523.54     0  07:03           0        5.72      -0.043
  WS02006235           JUNCTION      0.00   523.62     0  07:02           0        5.81       0.130
  WS02006238           JUNCTION      0.00   327.46     0  07:03           0        2.27       0.054
  WS02006240           JUNCTION      0.00   327.34     0  07:05           0        2.19       0.063
  WS02006242           JUNCTION      0.00   327.46     0  07:03           0        2.16       0.098
  WS02006243           JUNCTION      0.00   327.84     0  07:03           0        2.14      -0.011
  WS02006245           JUNCTION      0.00   328.06     0  07:03           0        2.13       0.183
  WS02006247           JUNCTION      0.00   335.04     0  04:10           0        2.13       0.036
  WS02006248           JUNCTION      0.00   354.61     0  04:10           0        2.13      -0.090
  WS02006249           JUNCTION      0.00   429.70     0  07:02           0        2.28       0.102
  WS02006239           JUNCTION      0.00   327.34     0  07:05           0        2.23      -0.024
  WS02006251           JUNCTION      0.08   413.22     0  07:02     0.00217        2.33      -0.033
  WS02006252           JUNCTION      0.00   400.00     0  07:00           0         1.8       0.006
  WS02006253           JUNCTION      3.75   143.69     0  03:01      0.0103       0.529      -0.045
  WS02006256           JUNCTION      0.00   983.00     0  02:30           0        9.62       0.008
  WS02004138           JUNCTION      0.00   380.00     0  00:00           0         9.8       0.065
  WS02004139           JUNCTION      0.32   394.45     0  00:00     0.00905        9.81       0.461
  WS02004407           JUNCTION      0.00   940.03     0  03:03           0        8.36       0.053
  WS02006228           JUNCTION      0.00   913.44     0  03:02           0        8.42       0.070
  WS02006229           JUNCTION      0.00   918.06     0  03:01           0        8.43       0.130
  WS02006280           JUNCTION      0.00   680.09     0  03:02           0        2.43       0.004
  WS02006284           JUNCTION      0.10   678.94     0  03:02      0.0027        2.43       0.046
  WS02006287           JUNCTION      0.00   677.58     0  03:02           0        2.43       0.030
  WSF200               JUNCTION      0.00   939.05     0  03:04           0        8.26       0.036
  HS02004901           JUNCTION     37.63    37.63     0  03:01       0.103       0.103       1.741
  HS02004881           JUNCTION     14.26   140.53     0  03:01      0.0422       0.463       0.052
  HS02004876           JUNCTION     25.66   127.63     0  03:01      0.0814       0.422       0.131
  HS02004870           JUNCTION     26.26   103.59     0  03:01      0.0799        0.34       0.035
  HS02004862           JUNCTION     25.49    79.37     0  03:01      0.0888       0.261       0.068
  HS02004856           JUNCTION     19.64    55.42     0  03:01      0.0601       0.173       0.845
  HS02004852           JUNCTION      0.00    37.84     0  03:01           0       0.113       0.053
  HS02004848           JUNCTION     55.75    55.75     0  03:01       0.197       0.197       0.028
  HS02004842           JUNCTION      0.00    16.84     0  03:01           0       0.097      15.491
  HS02004837           JUNCTION     50.35    65.70     0  03:01       0.318       0.402       0.204
  HS02004830           JUNCTION      0.15    64.79     0  03:01     0.00423       0.392       0.316
  HS02004824           JUNCTION     65.57   128.45     0  03:01       0.251       0.642       0.086
  HS02004817           JUNCTION      0.60   124.46     0  03:01      0.0169       0.658       2.599
  HS02004807           JUNCTION     48.45   165.78     0  03:01       0.147       0.788       0.554
  HS02004802           JUNCTION      0.00   165.31     0  03:04           0       0.785       0.508
  HS02004799           JUNCTION     38.67   446.00     0  03:01       0.119        1.42       0.191
  HS02004792           JUNCTION    184.82   411.88     0  03:01        0.54         1.3       0.033
  HS02004788           JUNCTION     58.68   233.43     0  03:02       0.219       0.758       0.052
  HS02004785           JUNCTION      0.15   182.19     0  03:01     0.00423        0.54       0.093
  HS02004777           JUNCTION      0.03   185.00     0  03:01    0.000846       0.541       0.972
  HS02004770           JUNCTION    154.22   188.97     0  03:01       0.441       0.542       0.578
  HS02004480           JUNCTION      0.00   517.15     0  03:01           0        1.66       0.069
  HS02004479           JUNCTION      0.00    75.41     0  03:02           0       0.258       0.287
  HS02004478           JUNCTION      0.00   677.02     0  03:02           0        2.43       0.012
  YS02001745           JUNCTION    438.14   438.14     0  03:01        3.01        3.02       0.380
  YS02001748           JUNCTION      0.04   562.01     0  02:33     0.00127        3.01       0.730
  YS02001751           JUNCTION      0.01   443.62     0  03:01     0.00031        2.98       0.799
  YS02001754           JUNCTION      0.26   444.01     0  03:01     0.00733        2.96       0.840
  YS02001762           JUNCTION      0.00   315.52     0  02:42           0        2.23       0.963
  YS02001765           JUNCTION      0.00   316.10     0  02:42           0        2.23       1.115
  YS02001767           JUNCTION      0.54   315.80     0  02:42      0.0151        2.26       1.621
  YS02001770           JUNCTION    552.50   699.56     0  03:16        3.37        4.25       0.755
  YS02001774           JUNCTION      0.00   699.77     0  03:17           0        2.87       0.893
  YS02001779           JUNCTION      0.01   699.56     0  03:16    0.000141        2.84       0.548
  YS02001882           JUNCTION      0.00    11.70     0  02:43           0       0.023       9.425
  YS02001884           JUNCTION      0.00    20.81     0  02:28           0      0.0596      10.994
  YS02001759           JUNCTION    536.49   621.15     0  02:42        3.11        4.42       0.519
  YS02001887           JUNCTION    679.97   681.16     0  03:01        3.57         3.6       0.230
  YS02001890           JUNCTION      0.00   680.64     0  03:01           0        3.55       0.252
  YS02001898           JUNCTION      0.00   517.77     0  03:01           0        3.45       0.087
  YS02001901           JUNCTION      0.00   517.70     0  02:58           0        3.45       0.189
  YS02001904           JUNCTION      0.00   517.86     0  03:01           0        3.44       0.162
  YS02001907           JUNCTION      0.00  1114.11     0  03:01           0        7.77       0.298
  YS02001910           JUNCTION      0.00   595.14     0  03:01           0        4.34       0.272
  YS02001915           JUNCTION    389.26   594.79     0  03:01        2.52        4.35       0.131
  YS02001918           JUNCTION      0.00   259.22     0  02:52           0        1.84       0.081
  YS02001619           JUNCTION    380.66   380.66     0  03:01        2.51        2.51       0.493
  YS02001629           JUNCTION      0.00   195.19     0  02:39           0        1.59       1.867
  YS02001641           JUNCTION      0.00   412.57     0  02:39           0        4.45       0.482
  YS02001644           JUNCTION    416.76  1523.68     0  03:01         2.9        11.9       0.223
  YS02001652           JUNCTION      0.00   500.50     0  03:01           0        2.62       0.914
  YS02001655           JUNCTION      0.15   499.98     0  03:01     0.00434        2.64       0.924
  YS02001920           JUNCTION      2.87   259.60     0  02:52      0.0809        1.84       0.148
  YS02001923           JUNCTION      0.04   228.64     0  02:53     0.00106        1.75       0.051
  YS02001926           JUNCTION      0.05   201.62     0  03:02     0.00147        1.75       0.201
  YS02001929           JUNCTION    189.18   189.18     0  03:01        1.75        1.75       0.039
  YS02001658           JUNCTION      0.00   609.20     0  02:29           0        2.67       0.793
  YS02001661           JUNCTION      0.00   633.87     0  02:53           0        2.85       0.334
  YS02001664           JUNCTION    492.63   492.63     0  03:01        2.67        2.84       0.209
  YS02001622           JUNCTION      0.00   381.33     0  03:01           0         2.5       1.288
  YS02001633           JUNCTION    423.29   423.29     0  03:01        2.99        4.52       0.718
  YS02001649           JUNCTION      0.00   870.01     0  02:39           0        6.81       0.549
  YS02001757           JUNCTION      0.00  1677.70     0  02:40           0        8.93       1.039
  YS02001895           JUNCTION      0.00   518.70     0  03:00           0        3.45       0.141
  YS02001625           JUNCTION      0.00   409.79     0  03:01           0        2.48       1.578
  YS02163301           JUNCTION      0.00   206.23     0  02:33           0        1.57       1.565
  YS02163601           JUNCTION      0.11   412.39     0  02:39      0.0031        4.48       0.681
  YS02164001           JUNCTION      0.00   412.06     0  02:39           0        4.46       0.460
  YS02001647           JUNCTION      0.00   807.71     0  03:17           0        6.04       0.468
  YSB1154              JUNCTION     44.76    44.76     0  03:01       0.144       0.144       1.017
  YSB6556              JUNCTION      0.00    43.26     0  03:01           0       0.145       0.869
  YSB1174              JUNCTION     38.10    38.10     0  03:01       0.106       0.107       1.222
  YSB1171              JUNCTION      0.00    76.94     0  03:01           0       0.257       2.527
  YS02006553           JUNCTION      0.00   718.59     0  02:51           0         6.8       0.215
  YS02006561           JUNCTION      0.00  1144.54     0  02:55           0          10       0.005
  YS02006556           JUNCTION      0.00   718.10     0  02:51           0        6.81       0.145
  YS02006558           JUNCTION    587.14  1145.42     0  02:55        3.28        10.1       0.046
  YS02001783           JUNCTION      0.00  1144.53     0  02:56           0          10       0.021
  YS02001784           JUNCTION      1.06  1145.31     0  02:55      0.0299        10.1       0.032
  YS02001786           JUNCTION      0.06  1145.57     0  02:56     0.00159        10.1       0.033
  YS02001788           JUNCTION      0.07  1147.41     0  02:55       0.002        10.1       0.022
  YS02001790           JUNCTION      0.15  1160.94     0  02:55     0.00437        10.1       0.009
  YS02001791           JUNCTION      0.00  1270.57     0  02:53           0        10.1       0.001
  YS02001793           JUNCTION      0.00  1215.64     0  02:53           0        10.1      -0.023
  WSC                  OUTFALL       0.00  1335.07     0  03:07           0        18.5       0.000
  JK-storage           STORAGE       0.00  1172.70     0  02:51           0        10.2      -9.102
  CC-storage           STORAGE       0.00  1677.78     0  02:40           0        6.03       1.095
  XR-storage           STORAGE    1024.87  1024.87     0  03:01        12.7        13.3      -0.005
  
  
  **********************
  Node Surcharge Summary
  **********************
  
  Surcharging occurs when water rises above the top of the highest conduit.
  ---------------------------------------------------------------------
                                               Max. Height   Min. Depth
                                   Hours       Above Crown    Below Rim
  Node                 Type      Surcharged         Meters       Meters
  ---------------------------------------------------------------------
  WS02004401           JUNCTION        0.41          0.233        1.427
  WS02004402           JUNCTION        0.45          0.223        1.517
  WS02004403           JUNCTION        0.46          0.198        1.832
  WS02004404           JUNCTION        0.69          0.241        2.539
  WS02004406           JUNCTION        0.60          0.162        2.288
  WS02004413           JUNCTION        0.17          0.023        2.177
  WS02004405           JUNCTION        0.65          0.213        2.587
  WS02006109           JUNCTION        2.84          0.829        0.991
  WS02006110           JUNCTION        1.27          0.533        1.317
  WS02006111           JUNCTION        0.12          0.073        1.797
  WS02006112           JUNCTION        1.62          0.555        1.125
  WS02006113           JUNCTION        0.14          0.121        1.809
  WS02006115           JUNCTION        0.28          0.205        2.045
  WS02006116           JUNCTION        0.30          0.197        2.093
  WS02006230           JUNCTION        0.92          0.793        0.777
  WS02006231           JUNCTION        1.30          0.805        0.725
  WS02006232           JUNCTION        2.44          0.918        0.562
  WS02006234           JUNCTION        1.81          0.801        0.439
  WS02006235           JUNCTION        2.03          0.825        0.465
  WS02006238           JUNCTION        2.09          0.836        0.594
  WS02006240           JUNCTION        1.51          0.691        0.699
  WS02006242           JUNCTION        1.56          0.697        0.123
  WS02006243           JUNCTION        1.11          0.641        0.129
  WS02006245           JUNCTION        0.98          0.526        0.324
  WS02006247           JUNCTION        0.98          0.487        0.273
  WS02006248           JUNCTION        0.83          0.380        0.000
  WS02006249           JUNCTION        0.87          0.390        0.000
  WS02006239           JUNCTION        1.71          0.746        0.544
  WS02006251           JUNCTION        0.42          0.257        0.923
  WS02006252           JUNCTION        1.01          0.447        0.653
  WS02006253           JUNCTION        0.44          0.322        2.158
  WS02006256           JUNCTION        6.62          2.050        0.000
  WS02006228           JUNCTION        2.81          0.993        1.207
  YS02001748           JUNCTION        5.22          0.350        0.840
  YS02001751           JUNCTION        5.38          0.584        0.616
  YS02001754           JUNCTION        5.58          0.801        0.349
  YS02001762           JUNCTION        5.75          1.045        0.105
  YS02001765           JUNCTION        5.72          0.996        0.104
  YS02001767           JUNCTION        5.69          0.950        0.080
  YS02001770           JUNCTION        5.68          0.905        0.015
  YS02001774           JUNCTION        5.74          0.988        0.062
  YS02001779           JUNCTION        5.56          0.680        0.000
  YS02001882           JUNCTION        1.07          0.635        0.195
  YS02001884           JUNCTION        1.10          0.678        0.192
  YS02001759           JUNCTION        5.78          1.090        0.120
  YS02001887           JUNCTION        1.18          0.765        0.185
  YS02001890           JUNCTION        1.20          0.760        0.000
  YS02001898           JUNCTION        1.02          0.533        0.207
  YS02001901           JUNCTION        1.14          0.678        0.192
  YS02001904           JUNCTION        1.12          0.638        0.212
  YS02001907           JUNCTION        1.88          0.950        0.000
  YS02001910           JUNCTION        1.25          0.787        0.313
  YS02001915           JUNCTION        1.06          0.603        0.397
  YS02001918           JUNCTION        0.86          0.282        0.528
  YS02001619           JUNCTION        5.37          0.610        0.000
  YS02001629           JUNCTION        5.38          0.470        0.000
  YS02001641           JUNCTION        5.73          0.936        0.164
  YS02001644           JUNCTION        5.73          0.920        0.000
  YS02001652           JUNCTION        5.61          1.000        0.130
  YS02001655           JUNCTION        5.39          1.068        0.132
  YS02001920           JUNCTION        0.89          0.361        0.779
  YS02001658           JUNCTION        5.25          1.010        0.290
  YS02001661           JUNCTION        0.05          0.800        0.590
  YS02001622           JUNCTION        5.41          0.591        0.029
  YS02001633           JUNCTION        5.71          0.926        0.134
  YS02001649           JUNCTION        5.75          1.050        0.000
  YS02001757           JUNCTION        5.86          1.193        0.017
  YS02001895           JUNCTION        1.04          0.566        0.184
  YS02001625           JUNCTION        5.64          0.780        0.000
  YS02163301           JUNCTION        5.68          0.889        0.141
  YS02163601           JUNCTION        5.75          0.988        0.092
  YS02164001           JUNCTION        5.72          0.919        0.181
  YS02001647           JUNCTION        5.62          0.803        0.097
  YS02006553           JUNCTION        1.98          1.163        0.027
  YS02006561           JUNCTION        0.87          0.944        0.206
  YS02006556           JUNCTION        1.47          1.337        0.013
  YS02006558           JUNCTION        1.43          1.400        0.000
  YS02001783           JUNCTION        1.35          1.487        0.113
  YS02001784           JUNCTION        1.30          1.490        0.000
  YS02001786           JUNCTION        1.12          1.404        0.026
  YS02001788           JUNCTION        0.93          1.480        0.000
  YS02001790           JUNCTION        1.83          1.157        0.000
  YS02001791           JUNCTION        1.92          0.788        1.132
  YS02001793           JUNCTION        2.22          0.862        1.738
  
  
  *********************
  Node Flooding Summary
  *********************
  
  Flooding refers to all water that overflows a node, whether it ponds or not.
  --------------------------------------------------------------------------
                                                             Total   Maximum
                                 Maximum   Time of Max       Flood    Ponded
                        Hours       Rate    Occurrence      Volume     Depth
  Node                 Flooded       LPS   days hr:min    10^6 ltr    Meters
  --------------------------------------------------------------------------
  WS02006248              0.08     15.52      0  03:03       0.002     0.000
  WS02006249              0.40    226.11      0  03:00       0.146     0.000
  WS02006256              3.88    789.56      0  05:01       6.011     0.000
  YS02001779              2.88    699.56      0  03:16       2.819     0.000
  YS02001890              0.34    164.31      0  03:01       0.085     0.000
  YS02001907              0.72    730.46      0  03:01       0.958     0.000
  YS02001619              0.01     13.24      0  02:30       0.000     0.000
  YS02001629              0.01     14.73      0  02:30       0.000     0.000
  YS02001644              4.61   1523.31      0  03:01      10.470     0.000
  YS02001649              0.01     29.37      0  02:48       0.000     0.000
  YS02001625              1.38    409.56      0  03:01       0.855     0.000
  YS02006558              0.01      4.83      0  02:56       0.000     0.000
  YS02001784              0.01      9.17      0  02:56       0.000     0.000
  YS02001788              0.01    115.09      0  02:56       0.000     0.000
  YS02001790              0.01     21.14      0  02:56       0.000     0.000
  JK-storage              1.11    967.04      0  03:10       1.497     0.000
  XR-storage              3.52    644.67      0  03:01       2.729     0.000
  
  
  **********************
  Storage Volume Summary
  **********************
  
  --------------------------------------------------------------------------------------------------
                         Average     Avg  Evap Exfil       Maximum     Max    Time of Max    Maximum
                          Volume    Pcnt  Pcnt  Pcnt        Volume    Pcnt     Occurrence    Outflow
  Storage Unit           1000 m3    Full  Loss  Loss       1000 m3    Full    days hr:min        LPS
  --------------------------------------------------------------------------------------------------
  JK-storage               0.125      43     0     0         0.291     100       0  02:20     983.00
  CC-storage               3.108      20     0     0         4.046      26       0  03:16     400.00
  XR-storage               0.780      84     0     0         0.926     100       0  02:55     380.00
  
  
  ***********************
  Outfall Loading Summary
  ***********************
  
  ---------------------------------------------------------------------------------------------------------------------------------
                         Flow       Avg       Max       Total         Total         Total         Total         Total         Total
                         Freq      Flow      Flow      Volume           COD            SS            TN            TP         NH4-N
  Outfall Node           Pcnt       LPS       LPS    10^6 ltr            kg            kg            kg            kg            kg
  ---------------------------------------------------------------------------------------------------------------------------------
  WSC                   99.99    730.41   1335.07      18.488      2262.468      3906.067       145.534        17.152        88.115
  ---------------------------------------------------------------------------------------------------------------------------------
  System                99.99    730.41   1335.07      18.488      2262.468      3906.067       145.534        17.152        88.115
  
  
  ********************
  Link Flow Summary
  ********************
  
  -----------------------------------------------------------------------------
                                 Maximum  Time of Max   Maximum    Max/    Max/
                                  |Flow|   Occurrence   |Veloc|    Full    Full
  Link                 Type          LPS  days hr:min     m/sec    Flow   Depth
  -----------------------------------------------------------------------------
  WS02003066WSF200     CONDUIT    939.05     0  03:04      3.00    0.16    0.32
  WS02006287WS02006284 CONDUIT    678.85     0  03:02      2.38    0.31    0.39
  WS02006284WS02006280 CONDUIT    680.09     0  03:02      2.62    0.28    0.37
  WS02006280WS02006229 CONDUIT    680.14     0  03:02      3.86    0.15    0.50
  WS02006229WS02006228 CONDUIT    913.44     0  03:02      1.82    3.03    1.00
  WS02006256WS02006235 CONDUIT    263.71     0  06:32      3.73    2.79    1.00
  WS02006253WS02006251 CONDUIT    150.75     0  03:08      0.56    0.45    1.00
  WS02006252WS02006251 CONDUIT    404.37     0  07:02      3.22    1.48    1.00
  WS02006251WS02006249 CONDUIT    429.70     0  07:02      1.12    1.24    1.00
  WS02006249WS02006248 CONDUIT    354.61     0  04:10      1.10    1.94    1.00
  WS02006248WS02006247 CONDUIT    335.04     0  04:10      1.06    0.73    1.00
  WS02006247WS02006245 CONDUIT    328.06     0  07:03      1.02    2.60    1.00
  WS02006245WS02006243 CONDUIT    327.84     0  07:03      1.08    0.97    1.00
  WS02006243WS02006242 CONDUIT    327.46     0  07:03      0.92    0.70    1.00
  WS02006242WS02006240 CONDUIT    327.34     0  07:05      0.85    1.30    1.00
  WS02006240WS02006239 CONDUIT    327.34     0  07:05      0.92    1.03    1.00
  WS02006239WS02006238 CONDUIT    327.46     0  07:03      0.85    1.05    1.00
  WS02006238WS02006235 CONDUIT    328.47     0  07:03      0.85    0.73    1.00
  WS02006235WS02006234 CONDUIT    523.54     0  07:03      1.36    5.52    1.00
  WS02006234WS02006232 CONDUIT    523.79     0  07:03      1.36    1.06    1.00
  WS02006232WS02006231 CONDUIT    523.27     0  07:03      1.36    1.10    1.00
  WS02006231WS02006230 CONDUIT    523.70     0  07:03      1.38    7.94    1.00
  WS02006230WS02006229 CONDUIT    534.45     0  07:04      1.39   11.89    1.00
  WS02006228WS02006109 CONDUIT    913.61     0  03:02      1.82    3.99    1.00
  WS02006116WS02004401 CONDUIT    939.03     0  03:02      1.20    1.29    1.00
  WS02006115WS02006116 CONDUIT    938.99     0  03:02      1.20    1.21    1.00
  WS02006113WS02006111 CONDUIT    915.22     0  03:02      2.57    1.10    1.00
  WS02006112WS02006115 CONDUIT    939.03     0  03:02      1.20    0.55    1.00
  WS02006111WS02006112 CONDUIT    915.53     0  03:03      1.82    0.44    1.00
  WS02006110WS02006113 CONDUIT    915.00     0  03:02      1.82    0.83    1.00
  WS02006109WS02006110 CONDUIT    914.93     0  03:02      1.82    1.76    1.00
  WS02004411WS02004412 CONDUIT    938.27     0  03:03      1.24    1.33    0.92
  WS02004401WS02004402 CONDUIT    939.10     0  03:02      1.20    1.13    1.00
  WS02004413WS02003067 CONDUIT    938.53     0  03:04      1.55    0.40    0.72
  WS02004412WS02004413 CONDUIT    938.32     0  03:04      1.22    0.63    0.95
  WS02004410WS02004411 CONDUIT    938.36     0  03:03      1.23    1.28    0.94
  WS02004409WS02004410 CONDUIT    938.81     0  03:03      1.22    1.21    0.95
  WS02004407WS02004409 CONDUIT    939.79     0  03:03      1.67    0.33    0.68
  WS02004406WS02004407 CONDUIT    940.03     0  03:03      1.60    0.42    0.70
  WS02004405WS02004406 CONDUIT    939.92     0  03:03      1.20    1.85    1.00
  WS02004404WS02004405 CONDUIT    939.73     0  03:03      1.20    9.21    1.00
  WS02004403WS02004404 CONDUIT    939.39     0  03:03      1.20    0.68    1.00
  WS02004402WS02004403 CONDUIT    939.24     0  03:03      1.20    1.35    1.00
  WS02004139WS02001211 CONDUIT    385.84     0  03:15      0.90    0.49    0.64
  WS02004138WS02004139 CONDUIT    394.13     0  00:00      3.62    0.08    0.47
  WS02003067WS02003066 CONDUIT    938.92     0  03:04      1.65    0.30    0.50
  WS02001213WS02003059 CONDUIT    410.76     0  03:14      0.89    0.68    0.87
  WS02001212WS02001213 CONDUIT    404.23     0  03:14      1.32    0.62    0.56
  WS02001211WS02001212 CONDUIT    399.07     0  03:15      0.78    0.31    0.71
  WS02003072WS02003073 CONDUIT   1333.12     0  03:06      1.96    2.88    0.58
  WS02003069WS02003072 CONDUIT   1333.07     0  03:06      1.82    0.64    0.62
  WS02003060WS02003069 CONDUIT   1333.13     0  03:05      2.03    0.52    0.56
  WS02003059WS02003060 CONDUIT    417.96     0  03:14      0.95    0.27    0.77
  HS02004901HS02004770 CONDUIT     37.23     0  03:01      0.10    0.14    0.53
  HS02004876HS02004881 CONDUIT    127.63     0  03:01      1.21    1.36    0.15
  HS02004870HS02004876 CONDUIT    103.09     0  03:01      0.82    0.07    0.18
  HS02004842HS02004848 CONDUIT     16.84     0  03:01      0.07    0.01    0.33
  HS02004837HS02004842 CONDUIT     17.90     0  03:03      0.42    0.01    0.35
  HS02004830HS02004837 CONDUIT     64.64     0  03:01      0.67    0.06    0.14
  HS02004824HS02004830 CONDUIT     64.12     0  03:02      0.62    0.08    0.16
  HS02004817HS02004824 CONDUIT    123.86     0  03:01      0.31    0.06    0.58
  HS02004770HS02004777 CONDUIT    184.97     0  03:01      0.49    0.34    0.54
  HS02004799HS02004480 CONDUIT    444.30     0  03:01      1.07    0.56    0.60
  HS02004792HS02004799 CONDUIT    408.41     0  03:01      1.20    0.25    0.49
  HS02004788HS02004792 CONDUIT    232.95     0  03:02      1.28    0.15    0.26
  HS02004785HS02004788 CONDUIT    181.76     0  03:02      0.91    1.37    0.29
  HS02004777HS02004785 CONDUIT    182.04     0  03:01      0.57    0.22    0.45
  HS02004480HS02004478 CONDUIT    517.29     0  03:01      1.55    2.18    0.48
  HS02004479HS02004480 CONDUIT     77.28     0  03:02      0.30    0.07    0.57
  HS02004862HS02004870 CONDUIT     79.02     0  03:01      0.80    0.09    0.14
  HS02004848HS02004852 CONDUIT     37.84     0  03:01      0.53    0.04    0.10
  HS02004856HS02004862 CONDUIT     54.76     0  03:01      0.59    0.05    0.13
  HS02004852HS02004856 CONDUIT     37.76     0  03:02      0.34    0.04    0.16
  HS02004802HS02004478 CONDUIT    170.15     0  03:04      0.54    0.15    0.48
  HS02004478WS02006287 CONDUIT    677.58     0  03:02      2.11    0.19    0.36
  HS02004817HS02004807 CONDUIT    128.13     0  03:04      0.25    0.08    0.75
  HS02004807HS02004802 CONDUIT    165.31     0  03:04      0.46    0.32    0.53
  YS02001759YS02001757 CONDUIT    620.90     0  02:42      0.79    0.44    1.00
  YS02001762YS02001759 CONDUIT    315.20     0  02:42      0.40    0.36    1.00
  YS02001765YS02001762 CONDUIT    315.52     0  02:42      0.40    0.30    1.00
  YS02001770YS02001767 CONDUIT    315.27     0  02:42      0.40    1.25    1.00
  YS02001774YS02001770 CONDUIT    699.77     0  03:17      0.89    0.45    1.00
  YS02001779YS02001774 CONDUIT    699.55     0  03:16      0.89    0.35    1.00
  YS02001649YS02001757 CONDUIT    870.24     0  02:40      1.11    0.53    1.00
  YS02001767YS02001765 CONDUIT    316.10     0  02:42      0.40    0.40    1.00
  YS02006561YS02001783 CONDUIT   1144.53     0  02:56      2.28    0.59    1.00
  YS02001783YS02001784 CONDUIT   1144.25     0  02:55      2.28    1.58    1.00
  YS02001784YS02001785 CONDUIT   1145.51     0  02:56      2.28    2.67    1.00
  YS02001788YS02001790 CONDUIT   1160.79     0  02:55      2.68    0.86    1.00
  YS02001790YS02001791 CONDUIT   1270.57     0  02:53      3.42    1.38    1.00
  YS02001791YS02001793 CONDUIT   1215.64     0  02:53      6.47    0.52    1.00
  YS02001910YS02001907 CONDUIT    595.23     0  03:01      0.76    0.34    1.00
  YS02001786YS02001788 CONDUIT   1147.34     0  02:55      2.45    2.21    1.00
  YS02001915YS02001910 CONDUIT    595.14     0  03:01      0.76    0.30    1.00
  YS02001918YS02001915 CONDUIT    259.60     0  02:52      0.44    0.14    1.00
  YS02001923YS02001920 CONDUIT    256.73     0  02:52      0.75    0.12    1.00
  YS02001926YS02001923 CONDUIT    228.60     0  02:53      0.85    0.33    0.93
  YS02001929YS02001926 CONDUIT    201.57     0  03:02      0.92    0.10    0.82
  YS02001920YS02001918 CONDUIT    259.22     0  02:52      0.72    0.25    1.00
  YS02001629YS02163301 CONDUIT    206.23     0  02:33      0.26    0.25    1.00
  YS02001619YS02001622 CONDUIT    381.33     0  03:01      0.59    0.56    1.00
  YS02001622YS02001625 CONDUIT    381.47     0  03:01      0.49    0.20    1.00
  YS02001625YS02001629 CONDUIT    195.19     0  02:39      0.25    0.09    1.00
  YS02163301YS02001633 CONDUIT    206.78     0  02:33      0.26    0.19    1.00
  YS02163601YS02164001 CONDUIT    412.06     0  02:39      0.52    0.37    1.00
  YS02164001YS02001641 CONDUIT    412.57     0  02:39      0.53    0.56    1.00
  YS02001641YS02001644 CONDUIT    412.41     0  02:39      0.53    1.33    1.00
  YS02001647YS02001649 CONDUIT    807.71     0  03:17      1.03    0.43    1.00
  YS02006553YS02006556 CONDUIT    718.10     0  02:51      0.91    0.61    1.00
  YS02006556YS02006558 CONDUIT    718.47     0  02:51      0.91    0.57    1.00
  YSB6556YSB1171       CONDUIT     42.82     0  03:02      0.13    0.04    0.82
  YS02001907YS02006553 CONDUIT    718.59     0  02:51      0.80    0.85    1.00
  YS02006558YS02006561 CONDUIT   1144.54     0  02:55      4.05    2.53    1.00
  YS02001633YS02163601 CONDUIT    412.28     0  02:39      0.52    0.43    1.00
  YS02001644YS02001647 CONDUIT    807.48     0  03:18      1.03    0.47    1.00
  YS02001745YS02001748 CONDUIT    561.97     0  02:33      1.46    0.22    0.98
  YS02001748YS02001751 CONDUIT    443.61     0  03:01      1.03    0.22    1.00
  YS02001751YS02001754 CONDUIT    443.75     0  03:01      0.88    0.21    1.00
  YS02001754YS02001757 CONDUIT    443.43     0  03:01      0.56    0.18    1.00
  YS02001882YS02001884 CONDUIT     11.70     0  02:43      0.12    0.01    1.00
  YS02001884YS02001887 CONDUIT     20.81     0  02:28      0.08    0.03    1.00
  YS02001890YS02001895 CONDUIT    518.70     0  03:00      0.66    0.24    1.00
  YS02001895YS02001898 CONDUIT    517.77     0  03:01      0.66    0.90    1.00
  YS02001898YS02001901 CONDUIT    517.70     0  02:58      0.66    0.33    1.00
  YS02001901YS02001904 CONDUIT    517.86     0  03:01      0.66    0.80    1.00
  YS02001904YS02001907 CONDUIT    518.88     0  03:01      0.66    0.18    1.00
  YS02001887YS02001890 CONDUIT    680.64     0  03:01      0.87    1.16    1.00
  YS02001652YS02001649 CONDUIT    500.12     0  03:01      0.64    0.25    1.00
  YS02001655YS02001652 CONDUIT    500.50     0  03:01      0.94    0.24    1.00
  YS02001658YS02001655 CONDUIT    499.83     0  03:01      1.18    0.21    1.00
  YS02001661YS02001658 CONDUIT    609.20     0  02:29      1.52    0.24    1.00
  YS02001664YS02001661 CONDUIT    633.87     0  02:53      1.42    0.20    0.77
  YSB1154YSB6556       CONDUIT     43.26     0  03:01      0.18    0.08    0.73
  YSB1174YSB1171       CONDUIT     36.66     0  03:01      0.11    0.06    0.85
  YSB1171HS02004479    CONDUIT     75.41     0  03:02      0.54    0.05    0.68
  HS02004881HS02006253 CONDUIT    140.46     0  03:01      2.15    0.03    0.54
  YS02001793JiankangQianchi CONDUIT   1172.70     0  02:51     16.65    0.09    1.00
  YS02001757CaochengTiaoxuchi CONDUIT   1677.78     0  02:40      2.17    0.74    1.00
  WSF200WS02003060     CONDUIT    939.25     0  03:04      1.93    0.21    0.45
  1                    CONDUIT   1335.07     0  03:07      3.59    0.46    0.48
  CC-Pump-1            PUMP       200.00     0  04:50              1.00
  CC-Pump-2            PUMP       200.00     0  07:00              1.00
  JK-Pump-1            PUMP       300.00     0  02:00              1.00
  JK-Pump-2            PUMP       683.00     0  02:30              1.00
  XR-Pump-1            PUMP        95.00     0  00:00              1.00
  XR-Pump-2            PUMP        95.00     0  00:00              1.00
  XR-Pump-3            PUMP        95.00     0  00:00              1.00
  XR-Pump-4            PUMP        95.00     0  00:00              1.00
  
  
  ***************************
  Flow Classification Summary
  ***************************
  
  -------------------------------------------------------------------------------------
                      Adjusted    ---------- Fraction of Time in Flow Class ---------- 
                       /Actual         Up    Down  Sub   Sup   Up    Down  Norm  Inlet 
  Conduit               Length    Dry  Dry   Dry   Crit  Crit  Crit  Crit  Ltd   Ctrl  
  -------------------------------------------------------------------------------------
  WS02003066WSF200        1.00   0.01  0.04  0.00  0.00  0.96  0.00  0.00  0.62  0.00
  WS02006287WS02006284    1.00   0.04  0.02  0.00  0.60  0.35  0.00  0.00  0.65  0.00
  WS02006284WS02006280    1.00   0.05  0.00  0.00  0.00  0.00  0.00  0.95  0.00  0.00
  WS02006280WS02006229    1.00   0.05  0.00  0.00  0.01  0.02  0.00  0.92  0.00  0.00
  WS02006229WS02006228    1.00   0.00  0.00  0.00  1.00  0.00  0.00  0.00  0.00  0.00
  WS02006256WS02006235    1.00   0.01  0.00  0.00  0.98  0.00  0.00  0.00  0.00  0.00
  WS02006253WS02006251    1.00   0.02  0.03  0.00  0.95  0.00  0.01  0.00  0.00  0.00
  WS02006252WS02006251    1.00   0.22  0.00  0.00  0.06  0.00  0.72  0.00  0.00  0.00
  WS02006251WS02006249    1.00   0.00  0.00  0.00  1.00  0.00  0.00  0.00  0.40  0.00
  WS02006249WS02006248    1.00   0.00  0.01  0.00  0.81  0.00  0.19  0.00  0.00  0.00
  WS02006248WS02006247    1.00   0.01  0.00  0.00  0.98  0.00  0.00  0.02  0.28  0.00
  WS02006247WS02006245    1.00   0.01  0.00  0.00  0.97  0.00  0.00  0.03  0.00  0.00
  WS02006245WS02006243    1.00   0.01  0.00  0.00  0.93  0.00  0.00  0.06  0.01  0.00
  WS02006243WS02006242    1.00   0.01  0.00  0.00  0.98  0.00  0.00  0.00  0.29  0.00
  WS02006242WS02006240    1.00   0.02  0.00  0.00  0.98  0.00  0.00  0.00  0.00  0.00
  WS02006240WS02006239    1.00   0.01  0.00  0.00  0.91  0.00  0.00  0.08  0.02  0.00
  WS02006239WS02006238    1.00   0.01  0.00  0.00  0.99  0.00  0.00  0.00  0.12  0.00
  WS02006238WS02006235    1.00   0.01  0.00  0.00  0.99  0.00  0.00  0.00  0.00  0.00
  WS02006235WS02006234    1.00   0.01  0.00  0.00  0.93  0.00  0.05  0.00  0.00  0.00
  WS02006234WS02006232    1.00   0.01  0.00  0.00  0.99  0.00  0.00  0.00  0.04  0.00
  WS02006232WS02006231    1.00   0.01  0.00  0.00  0.98  0.00  0.01  0.00  0.00  0.00
  WS02006231WS02006230    1.00   0.02  0.00  0.00  0.67  0.00  0.32  0.00  0.00  0.00
  WS02006230WS02006229    1.00   0.00  0.00  0.00  0.99  0.00  0.00  0.01  0.00  0.00
  WS02006228WS02006109    1.00   0.00  0.00  0.00  1.00  0.00  0.00  0.00  0.00  0.00
  WS02006116WS02004401    1.00   0.02  0.00  0.00  0.98  0.00  0.00  0.00  0.00  0.00
  WS02006115WS02006116    1.00   0.02  0.00  0.00  0.97  0.00  0.00  0.00  0.00  0.00
  WS02006113WS02006111    1.00   0.02  0.00  0.00  0.04  0.94  0.00  0.00  0.20  0.00
  WS02006112WS02006115    1.00   0.02  0.00  0.00  0.97  0.00  0.00  0.00  0.00  0.00
  WS02006111WS02006112    1.00   0.02  0.00  0.00  0.98  0.00  0.00  0.00  0.85  0.00
  WS02006110WS02006113    1.00   0.00  0.02  0.00  0.98  0.00  0.00  0.00  0.00  0.00
  WS02006109WS02006110    1.00   0.00  0.00  0.00  0.99  0.00  0.00  0.00  0.00  0.00
  WS02004411WS02004412    1.00   0.03  0.00  0.00  0.97  0.00  0.00  0.00  0.00  0.00
  WS02004401WS02004402    1.00   0.02  0.00  0.00  0.97  0.00  0.00  0.00  0.00  0.00
  WS02004413WS02003067    1.00   0.04  0.00  0.00  0.00  0.00  0.96  0.00  0.00  0.00
  WS02004412WS02004413    1.00   0.04  0.00  0.00  0.96  0.00  0.00  0.00  0.00  0.00
  WS02004410WS02004411    1.00   0.03  0.00  0.00  0.97  0.00  0.00  0.00  0.00  0.00
  WS02004409WS02004410    1.00   0.03  0.00  0.00  0.97  0.00  0.00  0.00  0.00  0.00
  WS02004407WS02004409    1.00   0.03  0.00  0.00  0.96  0.00  0.00  0.00  0.91  0.00
  WS02004406WS02004407    1.00   0.00  0.03  0.00  0.97  0.00  0.00  0.00  0.00  0.00
  WS02004405WS02004406    1.00   0.00  0.00  0.00  1.00  0.00  0.00  0.00  0.04  0.00
  WS02004404WS02004405    1.00   0.00  0.00  0.00  1.00  0.00  0.00  0.00  0.00  0.00
  WS02004403WS02004404    1.00   0.00  0.03  0.00  0.97  0.00  0.00  0.00  0.00  0.00
  WS02004402WS02004403    1.00   0.03  0.00  0.00  0.97  0.00  0.00  0.00  0.00  0.00
  WS02004139WS02001211    1.00   0.00  0.00  0.00  1.00  0.00  0.00  0.00  0.00  0.00
  WS02004138WS02004139    1.00   0.00  0.00  0.00  1.00  0.00  0.00  0.00  1.00  0.00
  WS02003067WS02003066    1.00   0.04  0.00  0.00  0.96  0.00  0.00  0.00  0.00  0.00
  WS02001213WS02003059    1.00   0.00  0.00  0.00  1.00  0.00  0.00  0.00  0.00  0.00
  WS02001212WS02001213    1.00   0.00  0.00  0.00  0.91  0.00  0.09  0.00  0.00  0.00
  WS02001211WS02001212    1.00   0.00  0.00  0.00  1.00  0.00  0.00  0.00  0.00  0.00
  WS02003072WS02003073    1.00   0.00  0.00  0.00  0.00  0.00  0.00  1.00  0.00  0.00
  WS02003069WS02003072    1.00   0.00  0.00  0.00  1.00  0.00  0.00  0.00  0.10  0.00
  WS02003060WS02003069    1.00   0.00  0.00  0.00  0.99  0.01  0.00  0.00  0.08  0.00
  WS02003059WS02003060    1.00   0.00  0.00  0.00  1.00  0.00  0.00  0.00  0.00  0.00
  HS02004901HS02004770    1.00   0.05  0.00  0.00  0.95  0.00  0.00  0.00  0.00  0.00
  HS02004876HS02004881    1.00   0.01  0.00  0.00  0.89  0.10  0.00  0.00  0.00  0.00
  HS02004870HS02004876    1.00   0.00  0.00  0.00  1.00  0.00  0.00  0.00  0.95  0.00
  HS02004842HS02004848    1.00   0.00  0.05  0.00  0.95  0.00  0.00  0.00  0.54  0.00
  HS02004837HS02004842    1.00   0.00  0.00  0.00  1.00  0.00  0.00  0.00  0.11  0.00
  HS02004830HS02004837    1.00   0.00  0.00  0.00  1.00  0.00  0.00  0.00  0.99  0.00
  HS02004824HS02004830    1.00   0.00  0.00  0.00  1.00  0.00  0.00  0.00  0.01  0.00
  HS02004817HS02004824    1.00   0.00  0.00  0.00  1.00  0.00  0.00  0.00  0.97  0.00
  HS02004770HS02004777    1.00   0.00  0.05  0.00  0.95  0.00  0.00  0.00  0.03  0.00
  HS02004799HS02004480    1.00   0.00  0.01  0.00  0.94  0.00  0.05  0.00  0.00  0.00
  HS02004792HS02004799    1.00   0.00  0.00  0.00  1.00  0.00  0.00  0.00  0.98  0.00
  HS02004788HS02004792    1.00   0.00  0.00  0.00  1.00  0.00  0.00  0.00  0.98  0.00
  HS02004785HS02004788    1.00   0.00  0.00  0.00  1.00  0.00  0.00  0.00  0.00  0.00
  HS02004777HS02004785    1.00   0.00  0.00  0.00  1.00  0.00  0.00  0.00  0.12  0.00
  HS02004480HS02004478    1.00   0.05  0.00  0.00  0.66  0.00  0.00  0.29  0.00  0.00
  HS02004479HS02004480    1.00   0.01  0.00  0.00  0.99  0.00  0.00  0.00  0.12  0.00
  HS02004862HS02004870    1.00   0.00  0.00  0.00  1.00  0.00  0.00  0.00  0.04  0.00
  HS02004848HS02004852    1.00   0.05  0.00  0.00  0.95  0.00  0.00  0.00  0.64  0.00
  HS02004856HS02004862    1.00   0.00  0.06  0.00  0.94  0.00  0.00  0.00  0.83  0.00
  HS02004852HS02004856    1.00   0.05  0.00  0.00  0.95  0.00  0.00  0.00  0.81  0.00
  HS02004802HS02004478    1.00   0.05  0.00  0.00  0.95  0.00  0.00  0.00  0.02  0.00
  HS02004478WS02006287    1.00   0.06  0.00  0.00  0.72  0.22  0.00  0.00  0.65  0.00
  HS02004817HS02004807    1.00   0.00  0.05  0.00  0.95  0.00  0.00  0.00  0.01  0.00
  HS02004807HS02004802    1.00   0.05  0.00  0.00  0.95  0.00  0.00  0.01  0.00  0.00
  YS02001759YS02001757    1.00   0.00  0.00  0.00  1.00  0.00  0.00  0.00  0.16  0.00
  YS02001762YS02001759    1.00   0.00  0.00  0.00  1.00  0.00  0.00  0.00  0.03  0.00
  YS02001765YS02001762    1.00   0.00  0.00  0.00  1.00  0.00  0.00  0.00  0.14  0.00
  YS02001770YS02001767    1.00   0.00  0.00  0.00  1.00  0.00  0.00  0.00  0.00  0.00
  YS02001774YS02001770    1.00   0.00  0.05  0.00  0.95  0.00  0.00  0.00  0.03  0.00
  YS02001779YS02001774    1.00   0.00  0.00  0.00  1.00  0.00  0.00  0.00  0.19  0.00
  YS02001649YS02001757    1.00   0.00  0.00  0.00  1.00  0.00  0.00  0.00  0.16  0.00
  YS02001767YS02001765    1.00   0.00  0.00  0.00  1.00  0.00  0.00  0.00  0.00  0.00
  YS02006561YS02001783    1.00   0.07  0.00  0.00  0.34  0.60  0.00  0.00  0.47  0.00
  YS02001783YS02001784    1.00   0.00  0.07  0.00  0.93  0.00  0.00  0.00  0.00  0.00
  YS02001784YS02001785    1.00   0.00  0.00  0.00  1.00  0.00  0.00  0.00  0.18  0.00
  YS02001788YS02001790    1.00   0.00  0.00  0.00  0.35  0.65  0.00  0.00  0.37  0.00
  YS02001790YS02001791    1.00   0.00  0.00  0.00  0.28  0.72  0.00  0.00  0.45  0.00
  YS02001791YS02001793    1.00   0.00  0.00  0.00  0.30  0.69  0.00  0.00  0.03  0.00
  YS02001910YS02001907    1.00   0.00  0.00  0.00  0.99  0.00  0.00  0.01  0.12  0.00
  YS02001786YS02001788    1.00   0.00  0.00  0.00  0.37  0.63  0.00  0.00  0.00  0.00
  YS02001915YS02001910    1.00   0.00  0.00  0.00  0.99  0.01  0.00  0.00  0.16  0.00
  YS02001918YS02001915    1.00   0.00  0.00  0.00  0.99  0.00  0.00  0.00  0.53  0.00
  YS02001923YS02001920    1.00   0.00  0.00  0.00  1.00  0.00  0.00  0.00  0.82  0.00
  YS02001926YS02001923    1.00   0.00  0.03  0.00  0.14  0.00  0.83  0.00  0.00  0.00
  YS02001929YS02001926    1.00   0.00  0.05  0.00  0.95  0.00  0.00  0.00  0.75  0.00
  YS02001920YS02001918    1.00   0.00  0.00  0.00  1.00  0.00  0.00  0.00  0.00  0.00
  YS02001629YS02163301    1.00   0.05  0.00  0.00  0.94  0.00  0.00  0.00  0.00  0.00
  YS02001619YS02001622    1.00   0.05  0.00  0.00  0.95  0.00  0.00  0.00  0.00  0.00
  YS02001622YS02001625    1.00   0.05  0.00  0.00  0.95  0.00  0.00  0.00  0.05  0.00
  YS02001625YS02001629    1.00   0.05  0.02  0.00  0.91  0.00  0.02  0.00  0.00  0.00
  YS02163301YS02001633    1.00   0.00  0.05  0.00  0.95  0.00  0.00  0.00  0.00  0.00
  YS02163601YS02164001    1.00   0.00  0.03  0.00  0.97  0.00  0.00  0.00  0.00  0.00
  YS02164001YS02001641    1.00   0.00  0.03  0.00  0.97  0.00  0.00  0.00  0.06  0.00
  YS02001641YS02001644    1.00   0.00  0.00  0.00  1.00  0.00  0.00  0.00  0.00  0.00
  YS02001647YS02001649    1.00   0.00  0.06  0.00  0.94  0.00  0.00  0.00  0.01  0.00
  YS02006553YS02006556    1.00   0.00  0.00  0.00  1.00  0.00  0.00  0.00  0.03  0.00
  YS02006556YS02006558    1.00   0.00  0.00  0.00  1.00  0.00  0.00  0.00  0.00  0.00
  YSB6556YSB1171          1.00   0.01  0.03  0.00  0.95  0.00  0.00  0.00  0.00  0.00
  YS02001907YS02006553    1.00   0.00  0.01  0.00  0.99  0.00  0.00  0.00  0.00  0.00
  YS02006558YS02006561    1.00   0.07  0.00  0.00  0.13  0.80  0.00  0.00  0.47  0.00
  YS02001633YS02163601    1.00   0.00  0.00  0.00  1.00  0.00  0.00  0.00  0.15  0.00
  YS02001644YS02001647    1.00   0.00  0.06  0.00  0.94  0.00  0.00  0.00  0.00  0.00
  YS02001745YS02001748    1.00   0.00  0.00  0.00  0.88  0.01  0.00  0.11  0.04  0.00
  YS02001748YS02001751    1.00   0.00  0.00  0.00  0.96  0.04  0.00  0.00  0.15  0.00
  YS02001751YS02001754    1.00   0.00  0.00  0.00  0.92  0.00  0.00  0.07  0.02  0.00
  YS02001754YS02001757    1.00   0.00  0.00  0.00  1.00  0.00  0.00  0.00  0.18  0.00
  YS02001882YS02001884    1.00   0.05  0.00  0.00  0.94  0.00  0.00  0.00  0.00  0.00
  YS02001884YS02001887    1.00   0.02  0.02  0.00  0.96  0.00  0.00  0.00  0.00  0.00
  YS02001890YS02001895    1.00   0.00  0.06  0.00  0.94  0.00  0.00  0.00  0.00  0.00
  YS02001895YS02001898    1.00   0.06  0.00  0.00  0.93  0.00  0.01  0.00  0.00  0.00
  YS02001898YS02001901    1.00   0.06  0.00  0.00  0.94  0.00  0.00  0.00  0.01  0.00
  YS02001901YS02001904    1.00   0.06  0.00  0.00  0.94  0.00  0.00  0.00  0.00  0.00
  YS02001904YS02001907    1.00   0.00  0.06  0.00  0.94  0.00  0.00  0.00  0.00  0.00
  YS02001887YS02001890    1.00   0.00  0.00  0.00  0.99  0.00  0.01  0.00  0.00  0.00
  YS02001652YS02001649    1.00   0.00  0.00  0.00  1.00  0.00  0.00  0.00  0.17  0.00
  YS02001655YS02001652    1.00   0.00  0.00  0.00  0.93  0.00  0.00  0.07  0.02  0.00
  YS02001658YS02001655    1.00   0.00  0.05  0.00  0.91  0.04  0.00  0.00  0.10  0.00
  YS02001661YS02001658    1.00   0.05  0.00  0.00  0.88  0.07  0.00  0.00  0.11  0.00
  YS02001664YS02001661    1.00   0.05  0.00  0.00  0.90  0.05  0.00  0.00  0.20  0.00
  YSB1154YSB6556          1.00   0.05  0.00  0.00  0.95  0.00  0.00  0.00  0.02  0.00
  YSB1174YSB1171          1.00   0.02  0.02  0.00  0.96  0.00  0.00  0.00  0.00  0.00
  YSB1171HS02004479       1.00   0.01  0.00  0.00  0.98  0.00  0.00  0.00  0.10  0.00
  HS02004881HS02006253    1.00   0.02  0.00  0.00  0.44  0.04  0.00  0.50  0.29  0.00
  YS02001793JiankangQianchi    1.00   0.00  0.00  0.00  0.64  0.36  0.00  0.00  0.46  0.00
  YS02001757CaochengTiaoxuchi    1.00   0.00  0.09  0.00  0.91  0.00  0.00  0.00  0.00  0.00
  WSF200WS02003060        1.00   0.00  0.01  0.00  0.96  0.03  0.00  0.00  0.48  0.00
  1                       1.00   0.00  0.00  0.00  0.00  1.00  0.00  0.00  0.54  0.00
  
  
  *************************
  Conduit Surcharge Summary
  *************************
  
  ----------------------------------------------------------------------------
                                                           Hours        Hours 
                         --------- Hours Full --------   Above Full   Capacity
  Conduit                Both Ends  Upstream  Dnstream   Normal Flow   Limited
  ----------------------------------------------------------------------------
  WS02006229WS02006228        2.81      2.89      2.81      4.18         2.80
  WS02006256WS02006235        5.07      5.07      6.62      4.46         0.01
  WS02006253WS02006251        0.79      0.79      0.82      0.01         0.04
  WS02006252WS02006251        0.62      0.62      1.01      0.70         0.01
  WS02006251WS02006249        0.81      0.81      0.87      0.25         0.18
  WS02006249WS02006248        0.83      0.83      0.87      1.22         0.01
  WS02006248WS02006247        0.88      0.88      0.98      0.01         0.01
  WS02006247WS02006245        0.98      1.00      0.98      1.84         0.84
  WS02006245WS02006243        1.01      1.01      1.11      0.01         0.04
  WS02006243WS02006242        1.15      1.15      1.56      0.01         0.01
  WS02006242WS02006240        1.51      1.51      1.69      0.58         0.01
  WS02006240WS02006239        1.55      1.55      1.71      0.24         0.24
  WS02006239WS02006238        1.90      1.90      2.09      0.26         0.27
  WS02006238WS02006235        2.09      2.09      2.24      0.01         0.02
  WS02006235WS02006234        1.81      1.81      2.03      5.00         0.01
  WS02006234WS02006232        1.93      1.93      2.44      0.35         0.37
[...]
  YS02001770YS02001767        5.69      5.69      5.69      0.55         0.52
  YS02001774YS02001770        5.68      5.68      5.74      0.01         0.01
  YS02001779YS02001774        5.56      5.56      5.74      0.01         0.01
  YS02001649YS02001757        5.75      5.75      5.86      0.01         0.01
  YS02001767YS02001765        5.69      5.69      5.72      0.01         0.01
  YS02006561YS02001783        0.87      0.87      1.35      0.01         0.01
  YS02001783YS02001784        1.30      1.35      1.30      1.58         1.19
  YS02001784YS02001785        1.12      1.30      1.12      2.50         1.12
  YS02001788YS02001790        0.93      0.93      1.83      0.01         0.01
  YS02001790YS02001791        1.83      1.83      1.92      1.13         0.90
  YS02001791YS02001793        1.92      1.92      2.32      0.01         0.01
  YS02001910YS02001907        1.25      1.25      1.88      0.01         0.01
  YS02001786YS02001788        0.93      1.12      0.93      2.04         0.93
  YS02001915YS02001910        1.06      1.06      1.25      0.01         0.01
  YS02001918YS02001915        0.86      0.86      1.06      0.01         0.01
  YS02001923YS02001920        0.72      0.72      0.89      0.01         0.01
  YS02001920YS02001918        0.86      0.86      0.89      0.01         0.01
  YS02001629YS02163301        5.67      5.67      5.68      0.01         0.01
  YS02001619YS02001622        5.37      5.37      5.40      0.01         0.01
  YS02001622YS02001625        5.40      5.40      5.64      0.01         0.01
  YS02001625YS02001629        5.38      5.38      5.64      0.01         0.01
  YS02163301YS02001633        5.68      5.68      5.72      0.01         0.01
  YS02163601YS02164001        5.72      5.72      5.75      0.01         0.01
  YS02164001YS02001641        5.72      5.72      5.73      0.01         0.03
  YS02001641YS02001644        5.73      5.73      5.73      1.72         1.94
  YS02001647YS02001649        5.62      5.62      5.75      0.01         0.01
  YS02006553YS02006556        1.47      1.47      1.98      0.01         0.01
  YS02006556YS02006558        1.68      1.68      2.06      0.01         0.01
  YSB6556YSB1171              0.01      0.01      0.07      0.01         0.01
  YS02001907YS02006553        2.55      2.55      2.76      0.01         0.01
  YS02006558YS02006561        0.98      1.43      0.98      2.34         0.98
  YS02001633YS02163601        5.71      5.71      5.75      0.01         0.01
  YS02001644YS02001647        5.62      5.62      5.73      0.01         0.01
  YS02001745YS02001748        0.01      0.01      5.22      0.01         0.01
  YS02001748YS02001751        5.27      5.27      5.38      0.01         0.01
  YS02001751YS02001754        5.38      5.38      5.58      0.01         0.01
  YS02001754YS02001757        5.61      5.61      5.86      0.01         0.01
  YS02001882YS02001884        1.07      1.07      1.10      0.01         0.01
  YS02001884YS02001887        1.15      1.15      1.18      0.01         0.01
  YS02001890YS02001895        1.04      1.04      1.27      0.01         0.01
  YS02001895YS02001898        1.02      1.02      1.04      0.01         0.01
  YS02001898YS02001901        1.05      1.05      1.14      0.01         0.01
  YS02001901YS02001904        1.12      1.12      1.14      0.01         0.01
  YS02001904YS02001907        1.12      1.12      2.00      0.01         0.01
  YS02001887YS02001890        1.20      1.20      1.23      0.16         0.01
  YS02001652YS02001649        5.63      5.63      5.75      0.01         0.01
  YS02001655YS02001652        5.39      5.39      5.61      0.01         0.01
  YS02001658YS02001655        5.25      5.25      5.39      0.01         0.01
  YS02001661YS02001658        0.05      0.05      5.25      0.01         0.01
  YS02001664YS02001661        0.01      0.01      1.16      0.01         0.01
  HS02004881HS02006253        0.01      0.01      0.44      0.01         0.01
  YS02001793JiankangQianchi        2.21      2.21      4.76      0.01         0.01
  YS02001757CaochengTiaoxuchi        5.11      5.11      5.86      0.01         0.01
  
  
  ***************
  Pumping Summary
  ***************
  
  ---------------------------------------------------------------------------------------------------------
                                                  Min       Avg       Max     Total     Power    % Time Off
                        Percent   Number of      Flow      Flow      Flow    Volume     Usage    Pump Curve
  Pump                 Utilized   Start-Ups       LPS       LPS       LPS  10^6 ltr     Kw-hr    Low   High
  ---------------------------------------------------------------------------------------------------------
  CC-Pump-1               36.16           4      0.00    123.07    200.00     1.200      1.09    0.0    0.0
  CC-Pump-2               19.15           4      0.00    103.11    200.00     0.600      0.68    0.0    0.0
  JK-Pump-1               61.69           4      0.00    218.78    300.00     3.767     55.76    0.0    0.0
  JK-Pump-2               48.92           4      0.00    406.46    683.00     5.850     80.09    0.0   97.4
  XR-Pump-1               95.75           3      0.00     92.77     95.00     2.451     22.29    0.0    0.0
  XR-Pump-2               95.75           3      0.00     92.77     95.00     2.451     22.29    0.0    0.0
  XR-Pump-3               95.75           3      0.00     92.77     95.00     2.451     22.29    0.0    0.0
  XR-Pump-4               95.75           3      0.00     92.77     95.00     2.451     22.29    0.0    0.0
  
  
  ***************************
  Link Pollutant Load Summary
  ***************************
  
  ------------------------------------------------------------------------------------------
                                 COD            SS            TN            TP         NH4-N
  Link                            kg            kg            kg            kg            kg
  ------------------------------------------------------------------------------------------
  WS02003066WSF200           751.316      1407.946        20.141         1.794        10.670
  WS02006287WS02006284       319.464       608.086        10.313         1.015         5.678
  WS02006284WS02006280       319.940       608.865        10.358         1.020         5.706
  WS02006280WS02006229       319.894       608.768        10.356         1.020         5.705
  WS02006229WS02006228       747.822      1401.525        19.688         1.732        10.382
  WS02006256WS02006235       235.588       434.322         5.263         0.414         2.672
  WS02006253WS02006251        63.491       124.428         1.413         0.107         0.703
  WS02006252WS02006251       156.744       286.190         3.265         0.237         1.605
  WS02006251WS02006249       211.283       394.426         4.493         0.331         2.218
  WS02006249WS02006248       195.573       363.981         4.175         0.308         2.064
  WS02006248WS02006247       195.671       364.139         4.181         0.308         2.067
  WS02006247WS02006245       195.611       364.035         4.179         0.308         2.066
  WS02006245WS02006243       195.425       363.745         4.170         0.307         2.061
  WS02006243WS02006242       195.697       364.194         4.185         0.309         2.070
  WS02006242WS02006240       196.498       365.531         4.201         0.310         2.077
  WS02006240WS02006239       198.035       368.177         4.242         0.313         2.099
  WS02006239WS02006238       200.124       371.604         4.315         0.320         2.139
  WS02006238WS02006235       201.496       373.831         4.362         0.325         2.165
  WS02006235WS02006234       430.211       796.608         9.412         0.719         4.722
  WS02006234WS02006232       430.070       796.312         9.414         0.720         4.724
  WS02006232WS02006231       429.638       795.550         9.402         0.719         4.717
  WS02006231WS02006230       429.681       795.642         9.404         0.719         4.718
  WS02006230WS02006229       428.821       794.213         9.377         0.717         4.704
  WS02006228WS02006109       746.844      1399.783        19.646         1.727        10.357
  WS02006116WS02004401       760.187      1423.874        20.392         1.816        10.805
  WS02006115WS02006116       761.432      1426.084        20.430         1.820        10.825
  WS02006113WS02006111       752.631      1408.579        20.330         1.815        10.790
  WS02006112WS02006115       762.515      1427.926        20.479         1.825        10.854
  WS02006111WS02006112       752.158      1407.847        20.310         1.813        10.778
  WS02006110WS02006113       753.188      1409.581        20.357         1.818        10.806
  WS02006109WS02006110       754.437      1411.732        20.430         1.826        10.849
  WS02004411WS02004412       753.533      1411.742        20.243         1.805        10.730
  WS02004401WS02004402       759.000      1421.816        20.345         1.811        10.777
  WS02004413WS02003067       751.757      1408.825        20.149         1.794        10.674
  WS02004412WS02004413       752.789      1410.458        20.214         1.802        10.713
  WS02004410WS02004411       754.132      1412.825        20.262         1.807        10.741
  WS02004409WS02004410       754.741      1413.885        20.287         1.809        10.755
  WS02004407WS02004409       755.190      1414.731        20.296         1.810        10.759
  WS02004406WS02004407       755.301      1415.034        20.288         1.809        10.753
  WS02004405WS02004406       756.667      1417.405        20.360         1.817        10.796
  WS02004404WS02004405       757.402      1418.837        20.351         1.814        10.787
  WS02004403WS02004404       756.929      1418.183        20.268         1.803        10.734
  WS02004402WS02004403       757.876      1419.815        20.308         1.808        10.757
  WS02004139WS02001211      1370.190      2275.436       111.156        13.568        68.515
  WS02004138WS02004139      1376.431      2285.857       111.639        13.626        68.811
  WS02003067WS02003066       751.438      1408.159        20.147         1.794        10.674
  WS02001213WS02003059      1404.104      2328.767       114.661        14.010        70.717
  WS02001212WS02001213      1413.213      2343.846       115.402        14.100        71.174
  WS02001211WS02001212      1414.732      2346.341       115.529        14.116        71.253
  WS02003072WS02003073      2256.907      3898.138       144.827        17.061        87.665
  WS02003069WS02003072      2261.557      3905.664       145.214        17.108        87.905
  WS02003060WS02003069      2263.927      3909.715       145.365        17.126        87.995
  WS02003059WS02003060      1401.322      2324.052       114.463        13.986        70.596
  HS02004901HS02004770        13.094        25.474         0.248         0.019         0.116
  HS02004876HS02004881        45.514        90.344         0.999         0.073         0.491
  HS02004870HS02004876        34.381        68.103         0.798         0.060         0.395
  HS02004842HS02004848         6.457        12.343         0.134         0.009         0.062
  HS02004837HS02004842        11.054        19.633         0.603         0.068         0.356
  HS02004830HS02004837        70.294       122.721         4.643         0.552         2.826
  HS02004824HS02004830        71.065       123.975         4.715         0.561         2.871
  HS02004817HS02004824        97.159       176.400         5.254         0.596         3.134
  HS02004770HS02004777        49.661        97.710         1.021         0.069         0.472
  HS02004799HS02004480       162.318       310.824         4.263         0.379         2.209
  HS02004792HS02004799       147.269       280.112         4.028         0.367         2.105
  HS02004788HS02004792        82.814       157.681         2.666         0.255         1.440
  HS02004785HS02004788        51.119       100.044         1.172         0.089         0.567
  HS02004777HS02004785        50.444        98.939         1.112         0.081         0.530
  HS02004480HS02004478       204.810       395.162         4.971         0.429         2.543
  HS02004479HS02004480        46.127        90.112         1.037         0.091         0.538
  HS02004862HS02004870        25.799        50.338         0.628         0.050         0.314
  HS02004848HS02004852        10.252        19.884         0.210         0.014         0.097
  HS02004856HS02004862        17.524        34.748         0.350         0.023         0.164
  HS02004852HS02004856        10.255        19.889         0.210         0.014         0.097
  HS02004802HS02004478       115.332       214.037         5.396         0.592         3.168
  HS02004478WS02006287       319.670       608.443        10.330         1.017         5.688
  HS02004817HS02004807        95.852       174.303         5.129         0.580         3.056
  HS02004807HS02004802       115.590       214.440         5.429         0.596         3.189
  YS02001759YS02001757       302.845       555.375         6.061         0.422         2.963
  YS02001762YS02001759       199.059       367.239         4.104         0.289         2.021
  YS02001765YS02001762       200.620       371.039         4.155         0.294         2.049
  YS02001770YS02001767       203.714       379.256         4.062         0.275         1.976
  YS02001774YS02001770       312.697       604.778         6.020         0.402         2.911
  YS02001779YS02001774       312.052       603.490         6.110         0.416         2.974
  YS02001649YS02001757       397.078       721.686         8.015         0.548         3.862
  YS02001767YS02001765       202.588       375.575         4.209         0.298         2.078
  YS02006561YS02001783      1034.091      1917.700        21.650         1.615        10.771
  YS02001783YS02001784      1034.025      1917.623        21.647         1.615        10.769
  YS02001784YS02001785      1041.421      1929.502        22.361         1.704        11.216
  YS02001788YS02001790      1042.031      1930.523        22.433         1.714        11.262
  YS02001790YS02001791      1043.192      1932.475        22.536         1.726        11.326
  YS02001791YS02001793      1043.192      1932.493        22.533         1.726        11.324
  YS02001910YS02001907       391.308       721.770         9.387         0.718         4.809
  YS02001786YS02001788      1041.683      1929.978        22.390         1.708        11.234
  YS02001915YS02001910       391.342       721.810         9.339         0.711         4.777
  YS02001918YS02001915       186.184       328.443         5.123         0.466         2.759
  YS02001923YS02001920       165.515       294.990         3.164         0.222         1.535
  YS02001926YS02001923       164.478       293.248         3.098         0.214         1.495
  YS02001929YS02001926       164.247       292.867         3.066         0.210         1.475
  YS02001920YS02001918       185.324       326.681         5.077         0.461         2.731
  YS02001629YS02163301        96.139       170.002         2.029         0.131         0.947
  YS02001619YS02001622       175.877       321.142         3.602         0.236         1.684
  YS02001622YS02001625       174.689       319.254         3.573         0.234         1.671
  YS02001625YS02001629        97.233       171.789         2.054         0.132         0.958
  YS02163301YS02001633        96.523       170.918         2.032         0.132         0.949
  YS02163601YS02164001       405.722       733.159         7.898         0.562         3.783
  YS02164001YS02001641       405.197       732.272         7.878         0.560         3.772
  YS02001641YS02001644       405.255       732.293         7.874         0.560         3.769
  YS02001647YS02001649       502.206       924.002        10.024         0.692         4.798
  YS02006553YS02006556       699.875      1287.562        15.019         1.149         7.556
  YS02006556YS02006558       699.979      1287.748        14.993         1.145         7.538
  YSB6556YSB1171              26.521        51.966         0.537         0.045         0.271
  YS02001907YS02006553       699.871      1287.571        15.025         1.150         7.560
  YS02006558YS02006561      1034.078      1917.668        21.650         1.615        10.771
  YS02001633YS02163601       406.444       734.278         7.879         0.558         3.768
  YS02001644YS02001647       507.805       934.363        10.110         0.698         4.837
  YS02001745YS02001748       248.641       465.235         5.369         0.364         2.652
  YS02001748YS02001751       247.155       462.360         5.430         0.376         2.699
  YS02001751YS02001754       246.180       460.757         5.413         0.375         2.691
  YS02001754YS02001757       246.946       461.906         5.577         0.398         2.798
  YS02001882YS02001884         3.080         5.324         0.062         0.005         0.031
  YS02001884YS02001887         6.703        11.868         0.132         0.010         0.066
  YS02001890YS02001895       451.158       846.807         8.305         0.625         4.051
  YS02001895YS02001898       451.048       846.695         8.300         0.624         4.048
  YS02001898YS02001901       450.870       846.392         8.296         0.624         4.046
  YS02001901YS02001904       450.800       846.332         8.304         0.625         4.051
  YS02001904YS02001907       451.104       846.824         8.358         0.632         4.086
  YS02001887YS02001890       468.397       881.000         8.648         0.653         4.224
  YS02001652YS02001649       209.536       388.453         4.228         0.304         1.981
  YS02001655YS02001652       210.474       389.942         4.252         0.306         1.993
  YS02001658YS02001655       210.296       389.628         4.173         0.295         1.940
  YS02001661YS02001658       214.107       396.352         4.252         0.300         1.976
  YS02001664YS02001661       220.869       407.069         4.411         0.311         2.049
  YSB1154YSB6556              26.085        51.270         0.486         0.038         0.239
  YSB1174YSB1171              18.020        35.560         0.361         0.029         0.181
  YSB1171HS02004479           46.091        90.056         1.040         0.092         0.540
  HS02004881HS02006253        51.351       102.224         1.106         0.080         0.543
  YS02001793JiankangQianchi      1042.964      1932.034        22.507         1.723        11.307
  YS02001757CaochengTiaoxuchi       525.633       953.800        11.004         0.790         5.404
  WSF200WS02003060           751.369      1407.948        20.154         1.795        10.679
  1                         2262.468      3906.067       145.534        17.152        88.115
  CC-Pump-1                  104.235       190.280         2.165         0.157         1.063
  CC-Pump-2                   52.289        95.553         1.084         0.078         0.533
  JK-Pump-1                  270.378       500.858         5.946         0.464         3.008
  JK-Pump-2                  495.525       923.276        10.200         0.756         5.056
  XR-Pump-1                  345.030       572.989        27.986         3.416        17.250
  XR-Pump-2                  345.030       572.989        27.986         3.416        17.250
  XR-Pump-3                  345.030       572.989        27.986         3.416        17.250
  XR-Pump-4                  345.030       572.989        27.986         3.416        17.250
  

  Analysis begun on:  Thu Jul 15 16:44:46 2021
  Analysis ended on:  Thu Jul 15 16:44:49 2021
  Total elapsed time: 00:00:03