
  EPA STORM WATER MANAGEMENT MODEL - VERSION 5.1 (Build 5.3.0.dev0)
  --------------------------------------------------------------

  WARNING 04: minimum elevation drop used for Conduit WS02004404WS02004405
  WARNING 03: negative offset ignored for Link YS02001904YS02001907
  
  *********************************************************
  NOTE: The summary statistics displayed in this report are
  based on results found at every computational time step,  
  not just on results from each reporting time step.
  *********************************************************
  
  ****************
  Analysis Options
  ****************
  Flow Units ............... LPS
  Process Models:
    Rainfall/Runoff ........ YES
    RDII ................... NO
    Snowmelt ............... NO
    Groundwater ............ NO
    Flow Routing ........... YES
    Ponding Allowed ........ NO
    Water Quality .......... YES
  Infiltration Method ...... HORTON
  Flow Routing Method ...... DYNWAVE
  Surcharge Method ......... EXTRAN
  Starting Date ............ 08/28/2015 08:00:00
  Ending Date .............. 08/28/2015 15:50:00
  Antecedent Dry Days ...... 8.0
  Report Time Step ......... 00:01:00
  Wet Time Step ............ 00:01:00
  Dry Time Step ............ 00:01:00
  Routing Time Step ........ 5.00 sec
  Variable Time Step ....... YES
  Maximum Trials ........... 8
  Number of Threads ........ 4
  Head Tolerance ........... 0.001500 m
  
  
  **************************        Volume         Depth
  Runoff Quantity Continuity     hectare-m            mm
  **************************     ---------       -------
  Total Precipitation ......         6.144        13.452
  Evaporation Loss .........         0.000         0.000
  Infiltration Loss ........         1.064         2.328
  Surface Runoff ...........         4.147         9.079
  Final Storage ............         0.935         2.047
  Continuity Error (%) .....        -0.020
  
  
  **************************           COD            SS            TN            TP         NH4-N
  Runoff Quality Continuity             kg            kg            kg            kg            kg
  **************************    ----------    ----------    ----------    ----------    ----------
  Initial Buildup ..........     41378.656     70582.865      1804.177       168.684      1032.807
  Surface Buildup ..........        21.799        40.924         2.400         0.218         1.395
  Wet Deposition ...........         0.000         0.000         0.000         0.000         0.000
  Sweeping Removal .........         0.000         0.000         0.000         0.000         0.000
  Infiltration Loss ........        97.311       184.943         1.849         0.130         0.881
  BMP Removal ..............         0.000         0.000         0.000         0.000         0.000
  Surface Runoff ...........      3769.819      7064.251        72.781         4.964        34.599
  Remaining Buildup ........     37531.916     63371.884      1731.919       163.806       998.709
  Continuity Error (%) .....         0.003         0.004         0.002         0.001         0.001
  
  
  **************************        Volume        Volume
  Flow Routing Continuity        hectare-m      10^6 ltr
  **************************     ---------     ---------
  Dry Weather Inflow .......         0.616         6.165
  Wet Weather Inflow .......         4.145        41.452
  Groundwater Inflow .......         0.000         0.000
  RDII Inflow ..............         0.000         0.000
  External Inflow ..........         0.102         1.024
  External Outflow .........         1.938        19.380
  Flooding Loss ............         2.480        24.801
  Evaporation Loss .........         0.000         0.000
  Exfiltration Loss ........         0.000         0.000
  Initial Stored Volume ....         0.076         0.761
  Final Stored Volume ......         0.647         6.472
  Continuity Error (%) .....        -2.536
  
  
  **************************           COD            SS            TN            TP         NH4-N
  Quality Routing Continuity            kg            kg            kg            kg            kg
  **************************    ----------    ----------    ----------    ----------    ----------
  Dry Weather Inflow .......      1541.201      2465.922       147.955        18.494        92.472
  Wet Weather Inflow .......      3769.149      7063.161        72.766         4.964        34.592
  Groundwater Inflow .......         0.000         0.000         0.000         0.000         0.000
  RDII Inflow ..............         0.000         0.000         0.000         0.000         0.000
  External Inflow ..........       183.418       293.469        17.608         2.201        11.005
  External Outflow .........      2332.319      4036.235       146.816        17.233        88.715
  Flooding Loss ............      2479.093      4617.715        63.849         5.573        33.580
  Exfiltration Loss ........         0.000         0.000         0.000         0.000         0.000
  Mass Reacted .............         0.000         0.000         0.000         0.000         0.000
  Initial Stored Mass ......         0.000         0.000         0.000         0.000         0.000
  Final Stored Mass ........       554.555       952.815        24.469         2.602        14.149
  Continuity Error (%) .....         2.326         2.197         1.341         0.976         1.177
  
  
  *************************
  Highest Continuity Errors
  *************************
  Node HS02004842 (13.41%)
  Node JK-storage (-11.83%)
  Node YS02001884 (10.34%)
  Node HS02004817 (2.53%)
  Node YSB1171 (2.46%)
  
  
  ***************************
  Time-Step Critical Elements
  ***************************
  Link WS02006252WS02006251 (53.57%)
  Link WS02006280WS02006229 (11.64%)
  Link WS02006238WS02006235 (8.72%)
  Link YS02001793JiankangQianchi (5.85%)
  Link WS02004404WS02004405 (5.39%)
  
  
  ********************************
  Highest Flow Instability Indexes
  ********************************
  Link WS02006113WS02006111 (46)
  Link YS02163601YS02164001 (37)
  Link YS02163301YS02001633 (36)
  Link YS02001629YS02163301 (36)
  Link YS02001619YS02001622 (34)
  
  
  *************************
  Routing Time Step Summary
  *************************
  Minimum Time Step           :     0.50 sec
  Average Time Step           :     1.29 sec
  Maximum Time Step           :     5.00 sec
  Percent in Steady State     :    -0.00
  Average Iterations per Step :     4.32
  Percent Not Converging      :    20.22
  
  
  ***************************
  Subcatchment Runoff Summary
  ***************************
  
  ------------------------------------------------------------------------------------------------------------------------------
                            Total      Total      Total      Total     Imperv       Perv      Total       Total     Peak  Runoff
                           Precip      Runon       Evap      Infil     Runoff     Runoff     Runoff      Runoff   Runoff   Coeff
  Subcatchment                 mm         mm         mm         mm         mm         mm         mm    10^6 ltr      LPS
  ------------------------------------------------------------------------------------------------------------------------------
  sub0                      13.45       0.00       0.00       0.63      12.47       0.31      12.77        0.01     3.75   0.950
  sub1                      13.45       0.00       0.00       1.12      11.88       0.36      12.24        0.08    25.66   0.910
  sub2                      13.45       0.00       0.00       4.44       8.39       0.53       8.92        0.08    25.29   0.663
  sub3                      13.45       0.00       0.00       4.56       8.35       0.42       8.77        0.20    55.75   0.652
  sub4                      13.45       0.00       0.00       1.22      11.71       0.26      11.97        0.25    65.52   0.890
  sub5                      13.45       0.00       0.00       0.68      12.41       0.26      12.67        0.14    44.76   0.942
  sub7                      13.45       0.00       0.00       0.86      12.18       0.35      12.53        0.04    14.26   0.931
  sub8                      13.45       0.00       0.00       0.87      12.17       0.34      12.50        0.08    26.26   0.930
  sub9                      13.45       0.00       0.00       0.88      12.17       0.33      12.50        0.06    19.64   0.929
  sub10                     13.45       0.00       0.00       0.78      12.29       0.29      12.58        0.14    44.00   0.935
  sub11                     13.45       0.00       0.00       0.77      12.30       0.31      12.61        0.15    48.45   0.938
  sub12                     13.45       0.00       0.00       1.25      11.66       0.50      12.16        0.11    38.10   0.904
  sub14                     13.45       0.00       0.00       0.88      12.16       0.33      12.49        0.12    38.67   0.929
  sub15                     13.45       0.00       0.00       3.37       9.35       0.66      10.01        0.17    57.01   0.744
  sub16                     13.45       0.00       0.00       3.56       8.97       0.88       9.85        0.10    37.63   0.732
  sub17                     13.45       0.00       0.00       3.47       9.10       0.84       9.94        0.09    30.67   0.739
  sub22                     13.45       0.00       0.00       4.98       7.63       0.81       8.43        0.53   184.54   0.627
  sub23                     13.45       0.00       0.00       4.17       8.43       0.81       9.24        0.44   154.22   0.687
  sub60                     13.45       0.00       0.00       1.53       9.85       0.09       9.93        3.01   438.14   0.738
  sub61                     13.45       0.00       0.00       2.16       9.95       0.12      10.07        3.11   536.45   0.749
  sub62                     13.45       0.00       0.00       0.98      10.84       0.10      10.94        3.36   552.35   0.813
  sub63                     13.45       0.00       0.00       3.77       8.69       0.14       8.83        2.67   492.63   0.656
  sub64                     13.45       0.00       0.00       1.93       9.45       0.09       9.54        2.90   416.72   0.709
  sub65                     13.45       0.00       0.00       1.67       9.61       0.08       9.70        2.98   423.09   0.721
  sub66                     13.45       0.00       0.00       3.81       8.10       0.09       8.18        2.51   380.66   0.608
  sub67                     13.45       0.00       0.00       0.95      11.38       0.13      11.51        3.55   679.52   0.856
  sub68                     13.45       0.00       0.00       1.75      10.45       0.13      10.59        3.26   586.26   0.787
  sub69                     13.45       0.00       0.00       1.83      10.79       0.19      10.98        2.57   544.72   0.816
  sub70                     13.45      11.20       0.00       7.51      14.65       0.88      15.52        3.55   494.81   0.630
  sub71                     13.45       0.00       0.00       0.99      10.58       0.09      10.67        2.52   389.24   0.793
  sub72                     13.45       0.00       0.00       0.89       8.56       0.05       8.61        1.75   189.18   0.640
  1                         13.45      15.11       0.00       1.37      16.56       4.63      21.19        4.98   484.42   0.742
  2                         13.45       0.00       0.00       3.02       3.21       1.96       5.17        2.07   340.45   0.384
  
  
  ****************************
  Subcatchment Washoff Summary
  ****************************
  
  ------------------------------------------------------------------------------------------
                                 COD            SS            TN            TP         NH4-N
  Subcatchment                    kg            kg            kg            kg            kg
  ------------------------------------------------------------------------------------------
  sub0                         2.670         5.197         0.046         0.004         0.022
  sub1                        11.241        22.423         0.210         0.015         0.101
  sub2                         6.894        13.384         0.145         0.010         0.067
  sub3                        16.924        32.573         0.350         0.024         0.161
  sub4                        25.772        51.904         0.510         0.031         0.245
  sub5                        25.778        50.682         0.460         0.035         0.223
  sub7                         5.751        11.638         0.108         0.007         0.052
  sub8                         8.581        17.755         0.171         0.010         0.082
  sub9                         7.353        15.005         0.142         0.009         0.068
  sub10                       21.202        42.223         0.389         0.028         0.188
  sub11                       20.657        41.614         0.386         0.026         0.187
  sub12                       17.724        35.094         0.321         0.024         0.155
  sub14                       15.732        31.800         0.298         0.020         0.144
  sub15                       20.231        39.321         0.389         0.028         0.182
  sub16                       13.129        25.518         0.249         0.019         0.117
  sub17                       12.049        23.208         0.222         0.017         0.105
  sub22                       62.582       119.432         1.186         0.090         0.554
  sub23                       36.683        72.439         0.776         0.051         0.357
  sub60                      243.520       456.962         4.842         0.298         2.321
  sub61                      302.151       564.434         5.627         0.386         2.710
  sub62                      313.722       596.076         6.119         0.388         2.938
  sub63                      223.275       410.850         4.468         0.314         2.075
  sub64                      305.877       553.773         5.626         0.410         2.687
  sub65                      313.037       569.066         5.795         0.415         2.772
  sub66                      176.068       321.340         3.608         0.236         1.687
  sub67                      466.222       877.505         8.365         0.616         4.045
  sub68                      332.037       626.413         6.347         0.429         3.034
  sub69                      298.258       568.561         5.590         0.393         2.674
  sub70                      502.897       962.303        10.037         0.699         4.710
  sub71                      206.745       396.330         4.242         0.246         2.030
  sub72                      164.385       293.107         3.069         0.210         1.476
  1                          349.075       671.606         7.102         0.495         3.297
  2                           42.749        75.577         1.214         0.073         0.518
  ------------------------------------------------------------------------------------------
  System                    4570.974      8595.115        88.408         6.057        41.983
  
  
  ******************
  Node Depth Summary
  ******************
  
  ---------------------------------------------------------------------------------
                                 Average  Maximum  Maximum  Time of Max    Reported
                                   Depth    Depth      HGL   Occurrence   Max Depth
  Node                 Type       Meters   Meters   Meters  days hr:min      Meters
  ---------------------------------------------------------------------------------
  WS02001211           JUNCTION     0.77     0.85     5.69     0  03:07        0.85
  WS02001212           JUNCTION     0.48     0.58     5.64     0  03:06        0.58
  WS02001213           JUNCTION     0.72     0.85     5.62     0  03:06        0.85
  WS02003069           JUNCTION     0.51     0.72     5.30     0  03:05        0.72
  WS02003072           JUNCTION     0.57     0.76     5.13     0  03:06        0.76
  WS02003073           JUNCTION     0.35     0.48     4.54     0  03:06        0.48
  WS02003060           JUNCTION     0.45     0.63     5.57     0  03:05        0.63
  WS02003066           JUNCTION     0.24     0.39     5.94     0  03:04        0.39
  WS02003059           JUNCTION     0.76     0.91     5.60     0  03:05        0.91
  WS02003067           JUNCTION     0.59     0.82     6.14     0  03:03        0.82
  WS02004401           JUNCTION     0.72     1.23     7.23     0  03:02        1.23
  WS02004402           JUNCTION     0.75     1.22     7.18     0  03:02        1.22
  WS02004403           JUNCTION     0.76     1.20     7.13     0  03:02        1.19
  WS02004404           JUNCTION     0.84     1.25     7.10     0  03:02        1.24
  WS02004406           JUNCTION     0.84     1.16     6.99     0  03:02        1.16
  WS02004409           JUNCTION     0.53     0.96     6.73     0  03:03        0.96
  WS02004410           JUNCTION     0.55     0.95     6.67     0  03:03        0.95
  WS02004411           JUNCTION     0.56     0.93     6.61     0  03:03        0.93
  WS02004412           JUNCTION     0.57     0.90     6.54     0  03:03        0.90
  WS02004413           JUNCTION     0.72     1.02     6.49     0  03:03        1.02
  WS02004405           JUNCTION     0.83     1.22     7.07     0  03:02        1.21
  WS02006109           JUNCTION     0.82     1.66     8.28     0  03:02        1.64
  WS02006110           JUNCTION     0.80     1.45     8.04     0  03:02        1.44
  WS02006111           JUNCTION     0.25     0.89     7.59     0  03:02        0.88
  WS02006112           JUNCTION     0.90     1.56     7.45     0  03:02        1.55
  WS02006113           JUNCTION     0.37     0.92     7.82     0  03:02        0.92
  WS02006115           JUNCTION     0.62     1.22     7.36     0  03:02        1.21
  WS02006116           JUNCTION     0.70     1.26     7.30     0  03:02        1.25
  WS02006230           JUNCTION     0.82     1.88     8.62     0  03:02        1.87
  WS02006231           JUNCTION     0.56     1.52     8.65     0  03:02        1.51
  WS02006232           JUNCTION     0.70     1.62     8.66     0  03:02        1.61
  WS02006234           JUNCTION     0.63     1.53     8.68     0  03:02        1.52
  WS02006235           JUNCTION     0.67     1.54     8.70     0  03:02        1.52
  WS02006238           JUNCTION     0.70     1.56     8.70     0  03:02        1.55
  WS02006240           JUNCTION     0.60     1.40     8.69     0  03:02        1.40
  WS02006242           JUNCTION     0.65     1.43     8.69     0  03:02        1.43
  WS02006243           JUNCTION     0.53     1.28     8.70     0  03:02        1.27
  WS02006245           JUNCTION     0.50     1.22     8.70     0  03:02        1.20
  WS02006247           JUNCTION     0.51     1.20     8.70     0  03:01        1.20
  WS02006248           JUNCTION     0.45     1.10     8.69     0  02:58        1.10
  WS02006249           JUNCTION     0.47     1.09     8.69     0  02:56        1.09
  WS02006239           JUNCTION     0.65     1.49     8.70     0  03:02        1.48
  WS02006251           JUNCTION     0.45     1.37     9.04     0  03:41        1.13
  WS02006252           JUNCTION     0.29     0.93     9.18     0  03:41        0.67
  WS02006253           JUNCTION     0.48     1.44     9.08     0  03:41        1.22
  WS02006256           JUNCTION     1.75     2.35     9.28     0  00:00        2.35
  WS02004138           JUNCTION     0.19     0.20     7.45     0  00:00        0.19
  WS02004139           JUNCTION     0.71     0.79     5.70     0  03:07        0.79
  WS02004407           JUNCTION     0.24     0.40     6.71     0  03:03        0.40
  WS02006228           JUNCTION     0.83     1.83     8.48     0  03:02        1.82
  WS02006229           JUNCTION     0.82     1.90     8.59     0  03:02        1.89
  WS02006280           JUNCTION     0.07     0.30     8.57     0  03:05        0.30
  WS02006284           JUNCTION     0.37     0.65     9.04     0  03:02        0.64
  WS02006287           JUNCTION     0.10     0.39     9.34     0  03:02        0.39
  WSF200               JUNCTION     0.23     0.44     5.67     0  03:04        0.44
  HS02004901           JUNCTION     0.13     0.38    10.20     0  03:01        0.37
  HS02004881           JUNCTION     0.01     0.05     9.08     0  03:01        0.05
  HS02004876           JUNCTION     0.05     0.16     9.19     0  03:01        0.16
  HS02004870           JUNCTION     0.02     0.09     9.38     0  03:01        0.09
  HS02004862           JUNCTION     0.02     0.11     9.49     0  03:01        0.11
  HS02004856           JUNCTION     0.08     0.15     9.58     0  03:01        0.15
  HS02004852           JUNCTION     0.01     0.07     9.59     0  03:02        0.07
  HS02004848           JUNCTION     0.01     0.07     9.67     0  03:01        0.07
  HS02004842           JUNCTION     0.34     0.40     9.67     0  03:01        0.40
  HS02004837           JUNCTION     0.03     0.09     9.67     0  03:01        0.09
  HS02004830           JUNCTION     0.04     0.10     9.57     0  03:02        0.10
  HS02004824           JUNCTION     0.03     0.13     9.53     0  03:02        0.13
  HS02004817           JUNCTION     0.45     0.69     9.54     0  03:02        0.69
  HS02004807           JUNCTION     0.13     0.36     9.53     0  03:02        0.36
  HS02004802           JUNCTION     0.17     0.39     9.52     0  03:02        0.39
  HS02004799           JUNCTION     0.13     0.46     9.68     0  03:01        0.46
  HS02004792           JUNCTION     0.04     0.22     9.74     0  03:01        0.21
  HS02004788           JUNCTION     0.03     0.16    10.05     0  03:02        0.16
  HS02004785           JUNCTION     0.05     0.25    10.15     0  03:02        0.25
  HS02004777           JUNCTION     0.15     0.39    10.19     0  03:01        0.39
  HS02004770           JUNCTION     0.12     0.37    10.20     0  03:01        0.36
  HS02004480           JUNCTION     0.09     0.38     9.62     0  03:01        0.38
  HS02004479           JUNCTION     0.12     0.42     9.62     0  03:01        0.42
  HS02004478           JUNCTION     0.07     0.28     9.50     0  03:01        0.28
  YS02001745           JUNCTION     0.73     0.95     8.47     0  03:01        0.95
  YS02001748           JUNCTION     1.13     1.54     8.62     0  02:32        1.39
  YS02001751           JUNCTION     1.31     1.63     8.51     0  02:24        1.58
  YS02001754           JUNCTION     1.56     1.85     8.46     0  03:18        1.84
  YS02001762           JUNCTION     1.76     2.05     8.45     0  03:18        2.04
  YS02001765           JUNCTION     1.71     1.99     8.44     0  03:18        1.98
  YS02001767           JUNCTION     1.68     1.95     8.44     0  03:06        1.94
  YS02001770           JUNCTION     1.67     1.93     8.43     0  03:01        1.93
  YS02001774           JUNCTION     1.74     1.99     8.41     0  03:01        1.98
  YS02001779           JUNCTION     1.49     1.68     8.37     0  02:40        1.68
  YS02001882           JUNCTION     0.56     1.66     8.37     0  02:46        1.63
  YS02001884           JUNCTION     0.66     1.74     8.36     0  02:46        1.72
  YS02001759           JUNCTION     1.80     2.09     8.46     0  03:18        2.08
  YS02001887           JUNCTION     0.73     1.81     8.35     0  02:59        1.81
  YS02001890           JUNCTION     0.76     1.81     8.32     0  02:46        1.81
  YS02001898           JUNCTION     0.53     1.57     8.30     0  02:46        1.56
  YS02001901           JUNCTION     0.65     1.68     8.29     0  02:46        1.68
  YS02001904           JUNCTION     0.63     1.64     8.27     0  02:46        1.63
  YS02001907           JUNCTION     0.96     1.96     8.25     0  02:46        1.96
  YS02001910           JUNCTION     0.75     1.79     8.30     0  02:47        1.78
  YS02001915           JUNCTION     0.55     1.62     8.33     0  02:47        1.60
  YS02001918           JUNCTION     0.29     1.32     8.39     0  02:47        1.30
  YS02001619           JUNCTION     1.27     1.61     8.54     0  02:32        1.48
  YS02001629           JUNCTION     1.62     1.85     8.40     0  02:32        1.84
  YS02001641           JUNCTION     1.72     1.95     8.38     0  06:11        1.93
  YS02001644           JUNCTION     1.72     1.92     8.35     0  02:39        1.92
  YS02001652           JUNCTION     1.58     2.15     8.74     0  02:46        1.90
  YS02001655           JUNCTION     1.34     2.12     8.97     0  02:46        1.71
  YS02001920           JUNCTION     0.40     1.41     8.42     0  02:47        1.39
  YS02001923           JUNCTION     0.23     1.18     8.44     0  02:47        1.16
  YS02001926           JUNCTION     0.29     1.06     8.50     0  02:47        1.03
  YS02001929           JUNCTION     0.17     0.76     8.45     0  02:48        0.71
  YS02001658           JUNCTION     1.07     2.30     9.44     0  02:45        1.45
  YS02001661           JUNCTION     0.84     2.46     9.86     0  02:45        1.18
  YS02001664           JUNCTION     0.38     0.58     8.51     0  02:42        0.56
  YS02001622           JUNCTION     1.29     1.60     8.50     0  02:32        1.50
  YS02001633           JUNCTION     1.71     1.97     8.42     0  06:11        1.94
  YS02001649           JUNCTION     1.77     2.05     8.44     0  02:43        2.05
  YS02001757           JUNCTION     1.89     2.19     8.45     0  03:18        2.18
  YS02001895           JUNCTION     0.52     1.57     8.32     0  02:57        1.56
  YS02001625           JUNCTION     1.58     1.78     8.38     0  02:32        1.78
  YS02163301           JUNCTION     1.65     1.90     8.42     0  06:11        1.88
  YS02163601           JUNCTION     1.77     2.02     8.42     0  06:11        1.98
  YS02164001           JUNCTION     1.70     1.95     8.41     0  06:11        1.91
  YS02001647           JUNCTION     1.56     1.80     8.41     0  02:46        1.80
  YSB1154              JUNCTION     0.26     0.57     9.62     0  03:01        0.57
  YSB6556              JUNCTION     0.16     0.45     9.62     0  03:02        0.45
  YSB1174              JUNCTION     0.22     0.52     9.62     0  03:01        0.51
  YSB1171              JUNCTION     0.42     0.72     9.62     0  03:01        0.72
  YS02006553           JUNCTION     0.96     1.97     8.25     0  03:00        1.96
  YS02006561           JUNCTION     0.32     1.11     7.77     0  02:46        1.08
  YS02006556           JUNCTION     0.93     1.93     8.24     0  02:58        1.93
  YS02006558           JUNCTION     0.97     1.98     8.24     0  02:59        1.97
  YS02001783           JUNCTION     0.53     1.50     7.64     0  02:46        1.47
  YS02001784           JUNCTION     0.54     1.90     7.97     0  02:42        1.41
  YS02001786           JUNCTION     0.48     2.23     8.26     0  02:42        1.26
  YS02001788           JUNCTION     0.40     2.05     8.03     0  02:42        1.12
  YS02001790           JUNCTION     0.51     1.96     7.60     0  02:41        1.29
  YS02001791           JUNCTION     0.46     2.72     8.19     0  02:41        1.28
  YS02001793           JUNCTION     0.62     2.64     7.47     0  04:38        1.80
  WSC                  OUTFALL      0.35     0.48     1.15     0  03:07        0.48
  JK-storage           STORAGE      2.60     5.80     6.60     0  02:07        5.80
  CC-storage           STORAGE      1.15     1.45     8.45     0  03:16        1.45
  XR-storage           STORAGE      6.69     7.72     5.72     0  02:55        7.72
  
  
  *******************
  Node Inflow Summary
  *******************
  
  -------------------------------------------------------------------------------------------------
                                  Maximum  Maximum                  Lateral       Total        Flow
                                  Lateral    Total  Time of Max      Inflow      Inflow     Balance
                                   Inflow   Inflow   Occurrence      Volume      Volume       Error
  Node                 Type           LPS      LPS  days hr:min    10^6 ltr    10^6 ltr     Percent
  -------------------------------------------------------------------------------------------------
  WS02001211           JUNCTION      7.35   391.90     0  03:17       0.207        9.97       0.407
  WS02001212           JUNCTION      0.00   396.58     0  03:16           0        9.93       0.241
  WS02001213           JUNCTION      0.00   400.54     0  03:16           0        9.91       0.290
  WS02003069           JUNCTION      0.32  1329.89     0  03:05     0.00902        19.5       0.175
  WS02003072           JUNCTION      0.00  1329.56     0  03:05           0        19.4       0.212
  WS02003073           JUNCTION      1.82  1331.60     0  03:06      0.0514        19.4       0.246
  WS02003060           JUNCTION     16.53  1329.57     0  03:04       0.466        19.5       0.163
  WS02003066           JUNCTION      0.00   938.41     0  03:04           0        9.18       0.045
  WS02003059           JUNCTION      0.00   405.55     0  03:17           0        9.88       0.402
  WS02003067           JUNCTION      0.00   937.89     0  03:04           0        9.19       0.096
  WS02004401           JUNCTION      0.00   940.14     0  03:02           0        9.39       0.187
  WS02004402           JUNCTION      0.00   941.22     0  03:02           0        9.37       0.180
  WS02004403           JUNCTION      0.00   939.61     0  03:02           0        9.36       0.168
  WS02004404           JUNCTION      0.16   941.00     0  03:02     0.00457        9.35       0.129
  WS02004406           JUNCTION      0.00   940.13     0  03:02           0        9.32       0.317
  WS02004409           JUNCTION      0.00   939.24     0  03:03           0        9.28       0.149
  WS02004410           JUNCTION      0.00   938.16     0  03:03           0        9.27       0.175
  WS02004411           JUNCTION      0.00   937.58     0  03:03           0        9.25       0.184
  WS02004412           JUNCTION      0.00   937.29     0  03:03           0        9.24       0.203
  WS02004413           JUNCTION      0.00   937.82     0  03:04           0        9.22       0.308
  WS02004405           JUNCTION      0.04   940.35     0  03:02     0.00107        9.34       0.197
  WS02006109           JUNCTION      1.23   915.36     0  03:03      0.0347         9.4       0.156
  WS02006110           JUNCTION      0.00   915.28     0  03:02           0        9.38       0.143
  WS02006111           JUNCTION      0.00   915.63     0  03:03           0        9.36       0.019
  WS02006112           JUNCTION     30.67   939.24     0  03:02      0.0853        9.44       0.239
  WS02006113           JUNCTION      0.00   915.25     0  03:03           0        9.37       0.063
  WS02006115           JUNCTION      0.00   939.17     0  03:02           0        9.42       0.159
  WS02006116           JUNCTION      0.00   939.74     0  03:02           0        9.41       0.163
  WS02006230           JUNCTION     10.28   533.00     0  05:33        0.29        6.96       0.140
  WS02006231           JUNCTION      0.00   522.15     0  05:33           0        6.67       0.009
  WS02006232           JUNCTION      0.00   522.55     0  05:33           0        6.68       0.144
  WS02006234           JUNCTION      0.00   521.99     0  05:41           0        6.68       0.009
  WS02006235           JUNCTION      0.00   523.17     0  05:34           0        6.75       0.084
  WS02006238           JUNCTION      0.00   402.36     0  07:30           0        3.45       0.083
  WS02006240           JUNCTION      0.00   401.04     0  07:30           0        3.39       0.047
  WS02006242           JUNCTION      0.00   400.74     0  07:30           0        3.36       0.067
  WS02006243           JUNCTION      0.00   400.24     0  07:30           0        3.34      -0.076
  WS02006245           JUNCTION      0.00   399.89     0  07:30           0        3.34       0.101
  WS02006247           JUNCTION      0.00   399.71     0  07:30           0        3.34       0.016
  WS02006248           JUNCTION      0.00   400.42     0  07:30           0        3.34      -0.089
  WS02006249           JUNCTION      0.00   453.31     0  03:41           0         3.6       0.084
  WS02006239           JUNCTION      0.00   401.87     0  07:30           0        3.42       0.026
  WS02006251           JUNCTION      0.08   431.62     0  03:41     0.00217        3.67      -0.014
  WS02006252           JUNCTION      0.00   400.00     0  03:40           0        3.12       0.005
  WS02006253           JUNCTION      3.75   170.80     0  03:40      0.0103       0.547      -0.051
  WS02006256           JUNCTION      0.00   983.00     0  00:00           0        10.2      -0.009
  WS02004138           JUNCTION      0.00   380.00     0  00:00           0         9.8       0.065
  WS02004139           JUNCTION      0.32   396.51     0  00:00     0.00905        9.81       0.463
  WS02004407           JUNCTION      0.00   939.57     0  03:03           0        9.29       0.062
  WS02006228           JUNCTION      0.00   914.06     0  03:02           0        9.37       0.115
  WS02006229           JUNCTION      0.00   918.85     0  03:01           0        9.38       0.107
  WS02006280           JUNCTION      0.00   680.06     0  03:02           0        2.43       0.008
  WS02006284           JUNCTION      0.10   678.92     0  03:02      0.0027        2.43       0.046
  WS02006287           JUNCTION      0.00   677.57     0  03:02           0        2.43       0.030
  WSF200               JUNCTION      0.00   938.57     0  03:04           0        9.18       0.042
  HS02004901           JUNCTION     37.63    37.63     0  03:01       0.103       0.103       1.740
  HS02004881           JUNCTION     14.26   140.51     0  03:01      0.0422       0.463       0.087
  HS02004876           JUNCTION     25.66   127.62     0  03:01      0.0814       0.422       0.131
  HS02004870           JUNCTION     26.26   103.57     0  03:01      0.0799        0.34       0.034
  HS02004862           JUNCTION     25.49    79.36     0  03:01      0.0888       0.261       0.068
  HS02004856           JUNCTION     19.64    55.42     0  03:01      0.0601       0.173       0.840
  HS02004852           JUNCTION      0.00    37.84     0  03:01           0       0.113       0.053
  HS02004848           JUNCTION     55.75    55.75     0  03:01       0.197       0.197       0.027
  HS02004842           JUNCTION      0.00    16.84     0  03:01           0       0.097      15.490
  HS02004837           JUNCTION     50.35    65.69     0  03:01       0.318       0.402       0.204
  HS02004830           JUNCTION      0.15    64.78     0  03:01     0.00423       0.392       0.316
  HS02004824           JUNCTION     65.57   128.45     0  03:01       0.251       0.642       0.085
  HS02004817           JUNCTION      0.60   124.46     0  03:01      0.0169       0.658       2.599
  HS02004807           JUNCTION     48.45   165.77     0  03:01       0.147       0.788       0.554
  HS02004802           JUNCTION      0.00   165.31     0  03:04           0       0.785       0.508
  HS02004799           JUNCTION     38.67   445.96     0  03:01       0.119        1.42       0.191
  HS02004792           JUNCTION    184.82   411.85     0  03:01        0.54         1.3       0.033
  HS02004788           JUNCTION     58.68   233.42     0  03:02       0.219       0.758       0.053
  HS02004785           JUNCTION      0.15   182.17     0  03:01     0.00423        0.54       0.093
  HS02004777           JUNCTION      0.03   184.96     0  03:01    0.000846       0.541       0.971
  HS02004770           JUNCTION    154.22   188.92     0  03:01       0.441       0.542       0.577
  HS02004480           JUNCTION      0.00   517.11     0  03:01           0        1.66       0.070
  HS02004479           JUNCTION      0.00    75.45     0  03:02           0       0.258       0.286
  HS02004478           JUNCTION      0.00   677.01     0  03:02           0        2.43       0.011
  YS02001745           JUNCTION    438.14   438.14     0  03:01        3.01        3.02       0.378
  YS02001748           JUNCTION      0.04   570.76     0  02:32     0.00127        3.01       0.723
  YS02001751           JUNCTION      0.01   443.05     0  03:01     0.00031        2.98       0.801
  YS02001754           JUNCTION      0.26   442.63     0  03:01     0.00733        2.96       0.839
  YS02001762           JUNCTION      0.00   315.93     0  02:43           0        2.12       1.010
  YS02001765           JUNCTION      0.00   316.20     0  02:43           0        2.12       1.169
  YS02001767           JUNCTION      0.54   316.01     0  02:43      0.0151        2.15       1.694
  YS02001770           JUNCTION    552.50   699.67     0  03:16        3.37        4.06       0.783
  YS02001774           JUNCTION      0.00   699.75     0  03:16           0        2.59       0.982
  YS02001779           JUNCTION      0.01   699.80     0  03:16    0.000141        2.56       0.604
  YS02001882           JUNCTION      0.00    39.89     0  02:43           0      0.0242       9.828
  YS02001884           JUNCTION      0.00    39.91     0  02:43           0      0.0611      11.530
  YS02001759           JUNCTION    536.49   622.67     0  02:43        3.11         4.5       0.512
  YS02001887           JUNCTION    679.97   679.97     0  03:01        3.56         3.6       0.243
  YS02001890           JUNCTION      0.00   679.45     0  03:01           0        3.55       0.262
  YS02001898           JUNCTION      0.00   518.69     0  02:59           0        3.45       0.100
  YS02001901           JUNCTION      0.00   519.01     0  02:59           0        3.45       0.202
  YS02001904           JUNCTION      0.00   518.39     0  02:59           0        3.44       0.177
  YS02001907           JUNCTION      0.00  1111.52     0  03:01           0        7.77       0.309
  YS02001910           JUNCTION      0.00   594.31     0  03:01           0        4.34       0.283
  YS02001915           JUNCTION    389.26   594.03     0  03:01        2.52        4.38       0.139
  YS02001918           JUNCTION      0.00   291.67     0  02:48           0        1.89       0.101
  YS02001619           JUNCTION    380.66   380.66     0  03:01        2.51        2.51       0.492
  YS02001629           JUNCTION      0.00   196.18     0  02:39           0        1.59       1.862
  YS02001641           JUNCTION      0.00   412.21     0  02:39           0        4.45       0.482
  YS02001644           JUNCTION    416.76  1529.54     0  03:01         2.9        11.3       0.234
  YS02001652           JUNCTION      0.00   498.77     0  03:01           0        2.63       0.911
  YS02001655           JUNCTION      0.15   499.06     0  03:01     0.00434        2.65       0.915
  YS02001920           JUNCTION      2.87   291.07     0  02:48      0.0809        1.87       0.166
  YS02001923           JUNCTION      0.04   289.56     0  02:48     0.00106        1.77       0.047
  YS02001926           JUNCTION      0.05   211.44     0  02:48     0.00147        1.76       0.196
  YS02001929           JUNCTION    189.18   189.18     0  03:01        1.75        1.75       0.035
  YS02001658           JUNCTION      0.00   594.17     0  02:29           0        2.68       0.755
  YS02001661           JUNCTION      0.00   683.21     0  02:43           0        3.02      -0.047
  YS02001664           JUNCTION    492.63   492.63     0  03:01        2.67        3.01       0.214
  YS02001622           JUNCTION      0.00   380.73     0  03:01           0         2.5       1.288
  YS02001633           JUNCTION    423.29   423.29     0  03:01        2.99        4.52       0.715
  YS02001649           JUNCTION      0.00   872.29     0  02:40           0        6.67       0.565
  YS02001757           JUNCTION      0.00  1678.92     0  02:40           0        9.59       0.967
  YS02001895           JUNCTION      0.00   518.37     0  02:59           0        3.45       0.148
  YS02001625           JUNCTION      0.00   406.59     0  03:01           0        2.47       1.595
  YS02163301           JUNCTION      0.00   207.71     0  02:33           0        1.57       1.565
  YS02163601           JUNCTION      0.11   412.63     0  02:39      0.0031        4.48       0.680
  YS02164001           JUNCTION      0.00   412.49     0  02:39           0        4.46       0.464
  YS02001647           JUNCTION      0.00   808.11     0  03:18           0        5.83       0.491
  YSB1154              JUNCTION     44.76    44.76     0  03:01       0.144       0.144       1.016
  YSB6556              JUNCTION      0.00    43.26     0  03:01           0       0.145       0.869
  YSB1174              JUNCTION     38.10    38.10     0  03:01       0.106       0.107       1.221
  YSB1171              JUNCTION      0.00    76.89     0  03:01           0       0.257       2.525
  YS02006553           JUNCTION      0.00   708.08     0  03:46           0        6.69       0.233
  YS02006561           JUNCTION      0.00   981.47     0  03:19           0        9.92       0.007
  YS02006556           JUNCTION      0.00   708.68     0  03:46           0         6.7       0.162
  YS02006558           JUNCTION    587.14   982.04     0  03:18        3.28        9.95       0.052
  YS02001783           JUNCTION      0.00   981.29     0  03:18           0        9.92       0.024
  YS02001784           JUNCTION      1.06   982.54     0  03:18      0.0299        9.95       0.037
  YS02001786           JUNCTION      0.06   982.24     0  03:18     0.00159        9.94       0.035
  YS02001788           JUNCTION      0.07   982.16     0  03:18       0.002        9.94       0.023
  YS02001790           JUNCTION      0.15   982.43     0  03:18     0.00437        9.95       0.016
  YS02001791           JUNCTION      0.00   982.29     0  03:18           0        9.94       0.010
  YS02001793           JUNCTION      0.00   983.02     0  03:18           0        9.94      -0.024
  WSC                  OUTFALL       0.00  1331.86     0  03:07           0        19.4       0.000
  JK-storage           STORAGE       0.00   998.20     0  02:40           0        10.1     -10.577
  CC-storage           STORAGE       0.00  1680.06     0  02:40           0        7.24       0.908
  XR-storage           STORAGE    1024.87  1024.87     0  03:01        12.7        13.3      -0.002
  
  
  **********************
  Node Surcharge Summary
  **********************
  
  Surcharging occurs when water rises above the top of the highest conduit.
  ---------------------------------------------------------------------
                                               Max. Height   Min. Depth
                                   Hours       Above Crown    Below Rim
  Node                 Type      Surcharged         Meters       Meters
  ---------------------------------------------------------------------
  WS02004401           JUNCTION        0.37          0.235        1.425
  WS02004402           JUNCTION        0.40          0.224        1.516
  WS02004403           JUNCTION        0.41          0.198        1.832
  WS02004404           JUNCTION        0.70          0.246        2.534
  WS02004406           JUNCTION        0.50          0.164        2.286
  WS02004413           JUNCTION        0.18          0.023        2.177
  WS02004405           JUNCTION        0.58          0.219        2.581
  WS02006109           JUNCTION        3.33          0.837        0.983
  WS02006110           JUNCTION        1.68          0.541        1.309
  WS02006111           JUNCTION        0.13          0.075        1.795
  WS02006112           JUNCTION        1.90          0.562        1.118
  WS02006113           JUNCTION        0.15          0.124        1.806
  WS02006115           JUNCTION        0.29          0.208        2.042
  WS02006116           JUNCTION        0.30          0.202        2.088
  WS02006230           JUNCTION        1.17          0.796        0.774
  WS02006231           JUNCTION        1.55          0.814        0.716
  WS02006232           JUNCTION        3.39          0.923        0.557
  WS02006234           JUNCTION        2.23          0.806        0.434
  WS02006235           JUNCTION        2.64          0.829        0.461
  WS02006238           JUNCTION        2.81          0.837        0.593
  WS02006240           JUNCTION        1.99          0.691        0.699
  WS02006242           JUNCTION        2.22          0.696        0.124
  WS02006243           JUNCTION        1.71          0.566        0.204
  WS02006245           JUNCTION        1.58          0.509        0.341
  WS02006247           JUNCTION        1.61          0.487        0.273
  WS02006248           JUNCTION        1.35          0.380        0.000
  WS02006249           JUNCTION        1.44          0.390        0.000
  WS02006239           JUNCTION        2.19          0.749        0.541
  WS02006251           JUNCTION        0.73          0.339        0.841
  WS02006252           JUNCTION        1.97          0.533        0.567
  WS02006253           JUNCTION        0.77          0.396        2.084
  WS02006256           JUNCTION        6.67          2.050        0.000
  WS02006228           JUNCTION        3.27          1.003        1.197
  YS02001748           JUNCTION        5.22          0.462        0.728
  YS02001751           JUNCTION        5.37          0.627        0.573
  YS02001754           JUNCTION        5.58          0.798        0.352
  YS02001762           JUNCTION        5.75          1.048        0.102
  YS02001765           JUNCTION        5.72          0.993        0.107
  YS02001767           JUNCTION        5.70          0.949        0.081
  YS02001770           JUNCTION        5.68          0.905        0.015
  YS02001774           JUNCTION        5.74          0.990        0.060
  YS02001779           JUNCTION        5.56          0.680        0.000
  YS02001882           JUNCTION        1.08          0.655        0.175
  YS02001884           JUNCTION        1.09          0.681        0.189
  YS02001759           JUNCTION        5.78          1.093        0.117
  YS02001887           JUNCTION        1.17          0.764        0.186
  YS02001890           JUNCTION        1.19          0.760        0.000
  YS02001898           JUNCTION        1.04          0.539        0.201
  YS02001901           JUNCTION        1.13          0.680        0.190
  YS02001904           JUNCTION        1.11          0.642        0.208
  YS02001907           JUNCTION        1.91          0.950        0.000
  YS02001910           JUNCTION        1.24          0.792        0.308
  YS02001915           JUNCTION        1.06          0.617        0.383
  YS02001918           JUNCTION        0.90          0.319        0.491
  YS02001619           JUNCTION        5.37          0.610        0.000
  YS02001629           JUNCTION        5.38          0.470        0.000
  YS02001641           JUNCTION        5.73          0.948        0.152
  YS02001644           JUNCTION        5.73          0.920        0.000
  YS02001652           JUNCTION        5.61          1.117        0.013
  YS02001655           JUNCTION        5.39          1.124        0.076
  YS02001920           JUNCTION        0.93          0.413        0.727
  YS02001926           JUNCTION        0.01          0.057        0.843
  YS02001658           JUNCTION        5.25          1.300        0.000
  YS02001661           JUNCTION        0.11          1.390        0.000
  YS02001622           JUNCTION        5.40          0.600        0.020
  YS02001633           JUNCTION        5.71          0.950        0.110
  YS02001649           JUNCTION        5.76          1.050        0.000
  YS02001757           JUNCTION        5.86          1.189        0.021
  YS02001895           JUNCTION        1.06          0.568        0.182
  YS02001625           JUNCTION        5.64          0.780        0.000
  YS02163301           JUNCTION        5.69          0.901        0.129
  YS02163601           JUNCTION        5.75          1.020        0.060
  YS02164001           JUNCTION        5.72          0.949        0.151
  YS02001647           JUNCTION        5.62          0.804        0.096
  YS02006553           JUNCTION        2.00          0.969        0.221
  YS02006561           JUNCTION        0.95          0.309        0.841
  YS02006556           JUNCTION        1.47          0.893        0.457
  YS02006558           JUNCTION        1.43          0.878        0.522
  YS02001783           JUNCTION        1.18          0.695        0.905
  YS02001784           JUNCTION        1.14          1.098        0.392
  YS02001786           JUNCTION        1.09          1.430        0.000
  YS02001788           JUNCTION        1.03          1.248        0.232
  YS02001790           JUNCTION        1.86          1.157        0.000
  YS02001791           JUNCTION        1.96          1.920        0.000
  YS02001793           JUNCTION        2.26          1.640        0.960
  
  
  *********************
  Node Flooding Summary
  *********************
  
  Flooding refers to all water that overflows a node, whether it ponds or not.
  --------------------------------------------------------------------------
                                                             Total   Maximum
                                 Maximum   Time of Max       Flood    Ponded
                        Hours       Rate    Occurrence      Volume     Depth
  Node                 Flooded       LPS   days hr:min    10^6 ltr    Meters
  --------------------------------------------------------------------------
  WS02006248              0.08     20.55      0  05:02       0.002     0.000
  WS02006249              0.73    227.10      0  03:00       0.255     0.000
  WS02006256              3.96    978.40      0  00:00       6.798     0.000
  YS02001779              3.06    699.79      0  03:16       2.545     0.000
  YS02001890              0.34    161.94      0  03:01       0.085     0.000
  YS02001907              0.79    718.60      0  03:01       1.063     0.000
  YS02001619              0.01     11.50      0  02:32       0.000     0.000
  YS02001629              0.01      9.12      0  02:32       0.000     0.000
  YS02001644              4.69   1529.32      0  03:01       9.453     0.000
  YS02001658              0.01      9.85      0  02:45       0.000     0.000
  YS02001661              0.01    173.45      0  02:45       0.000     0.000
  YS02001649              0.01     48.26      0  02:45       0.001     0.000
  YS02001625              1.41    406.51      0  03:01       0.855     0.000
  YS02001786              0.01     45.96      0  02:42       0.000     0.000
  YS02001790              0.01    218.61      0  04:39       0.001     0.000
  YS02001791              0.01    163.80      0  02:41       0.000     0.000
  JK-storage              0.82    738.15      0  02:47       1.016     0.000
  XR-storage              3.52    644.83      0  03:01       2.728     0.000
  
  
  **********************
  Storage Volume Summary
  **********************
  
  --------------------------------------------------------------------------------------------------
                         Average     Avg  Evap Exfil       Maximum     Max    Time of Max    Maximum
                          Volume    Pcnt  Pcnt  Pcnt        Volume    Pcnt     Occurrence    Outflow
  Storage Unit           1000 m3    Full  Loss  Loss       1000 m3    Full    days hr:min        LPS
  --------------------------------------------------------------------------------------------------
  JK-storage               0.131      45     0     0         0.291     100       0  02:07     983.00
  CC-storage               3.198      20     0     0         4.046      26       0  03:16     400.00
  XR-storage               0.803      87     0     0         0.926     100       0  02:55     380.00
  
  
  ***********************
  Outfall Loading Summary
  ***********************
  
  ---------------------------------------------------------------------------------------------------------------------------------
                         Flow       Avg       Max       Total         Total         Total         Total         Total         Total
                         Freq      Flow      Flow      Volume           COD            SS            TN            TP         NH4-N
  Outfall Node           Pcnt       LPS       LPS    10^6 ltr            kg            kg            kg            kg            kg
  ---------------------------------------------------------------------------------------------------------------------------------
  WSC                   99.98    771.01   1331.86      19.380      2332.437      4036.431       146.825        17.234        88.721
  ---------------------------------------------------------------------------------------------------------------------------------
  System                99.98    771.01   1331.86      19.380      2332.437      4036.431       146.825        17.234        88.721
  
  
  ********************
  Link Flow Summary
  ********************
  
  -----------------------------------------------------------------------------
                                 Maximum  Time of Max   Maximum    Max/    Max/
                                  |Flow|   Occurrence   |Veloc|    Full    Full
  Link                 Type          LPS  days hr:min     m/sec    Flow   Depth
  -----------------------------------------------------------------------------
  WS02003066WSF200     CONDUIT    938.57     0  03:04      3.00    0.16    0.32
  WS02006287WS02006284 CONDUIT    678.83     0  03:02      2.38    0.31    0.39
  WS02006284WS02006280 CONDUIT    680.06     0  03:02      2.62    0.28    0.37
  WS02006280WS02006229 CONDUIT    680.13     0  03:02      3.89    0.15    0.50
  WS02006229WS02006228 CONDUIT    914.06     0  03:02      1.82    3.03    1.00
  WS02006256WS02006235 CONDUIT    288.60     0  00:00      4.23    3.05    1.00
  WS02006253WS02006251 CONDUIT    157.03     0  03:40      0.61    0.47    1.00
  WS02006252WS02006251 CONDUIT    406.81     0  03:41      3.24    1.49    1.00
  WS02006251WS02006249 CONDUIT    453.31     0  03:41      1.18    1.31    1.00
  WS02006249WS02006248 CONDUIT    400.42     0  07:30      1.14    2.19    1.00
  WS02006248WS02006247 CONDUIT    399.71     0  07:30      1.08    0.87    1.00
  WS02006247WS02006245 CONDUIT    399.89     0  07:30      1.05    3.17    1.00
  WS02006245WS02006243 CONDUIT    400.24     0  07:30      1.06    1.18    1.00
  WS02006243WS02006242 CONDUIT    400.74     0  07:30      1.04    0.86    1.00
  WS02006242WS02006240 CONDUIT    401.04     0  07:30      1.04    1.59    1.00
  WS02006240WS02006239 CONDUIT    401.87     0  07:30      1.04    1.26    1.00
  WS02006239WS02006238 CONDUIT    402.36     0  07:30      1.05    1.29    1.00
  WS02006238WS02006235 CONDUIT    403.71     0  07:30      1.46    0.90    1.00
  WS02006235WS02006234 CONDUIT    521.99     0  05:41      1.36    5.51    1.00
  WS02006234WS02006232 CONDUIT    522.55     0  05:33      1.39    1.06    1.00
  WS02006232WS02006231 CONDUIT    522.15     0  05:33      1.36    1.09    1.00
  WS02006231WS02006230 CONDUIT    522.72     0  05:33      1.38    7.93    1.00
  WS02006230WS02006229 CONDUIT    533.49     0  05:33      1.39   11.87    1.00
  WS02006228WS02006109 CONDUIT    914.13     0  03:03      1.82    3.99    1.00
  WS02006116WS02004401 CONDUIT    940.14     0  03:02      1.20    1.30    1.00
  WS02006115WS02006116 CONDUIT    939.74     0  03:02      1.20    1.21    1.00
  WS02006113WS02006111 CONDUIT    915.63     0  03:03      2.59    1.10    1.00
  WS02006112WS02006115 CONDUIT    939.17     0  03:02      1.20    0.55    1.00
  WS02006111WS02006112 CONDUIT    915.93     0  03:02      1.82    0.44    1.00
  WS02006110WS02006113 CONDUIT    915.25     0  03:03      1.82    0.83    1.00
  WS02006109WS02006110 CONDUIT    915.28     0  03:02      1.82    1.76    1.00
  WS02004411WS02004412 CONDUIT    937.29     0  03:03      1.24    1.33    0.92
  WS02004401WS02004402 CONDUIT    941.22     0  03:02      1.20    1.13    1.00
  WS02004413WS02003067 CONDUIT    937.89     0  03:04      1.55    0.40    0.72
  WS02004412WS02004413 CONDUIT    937.82     0  03:04      1.22    0.63    0.95
  WS02004410WS02004411 CONDUIT    937.58     0  03:03      1.23    1.28    0.94
  WS02004409WS02004410 CONDUIT    938.16     0  03:03      1.21    1.21    0.95
  WS02004407WS02004409 CONDUIT    939.24     0  03:03      1.68    0.33    0.68
  WS02004406WS02004407 CONDUIT    939.57     0  03:03      1.60    0.42    0.70
  WS02004405WS02004406 CONDUIT    940.13     0  03:02      1.20    1.85    1.00
  WS02004404WS02004405 CONDUIT    940.32     0  03:02      1.20    9.21    1.00
  WS02004403WS02004404 CONDUIT    940.84     0  03:02      1.20    0.68    1.00
  WS02004402WS02004403 CONDUIT    939.61     0  03:02      1.20    1.35    1.00
  WS02004139WS02001211 CONDUIT    384.56     0  03:17      0.90    0.49    0.64
  WS02004138WS02004139 CONDUIT    396.19     0  00:00      3.65    0.08    0.47
  WS02003067WS02003066 CONDUIT    938.41     0  03:04      1.65    0.30    0.50
  WS02001213WS02003059 CONDUIT    405.55     0  03:17      0.88    0.67    0.87
  WS02001212WS02001213 CONDUIT    400.54     0  03:16      1.32    0.62    0.56
  WS02001211WS02001212 CONDUIT    396.58     0  03:16      0.78    0.30    0.71
  WS02003072WS02003073 CONDUIT   1329.78     0  03:06      1.96    2.87    0.58
  WS02003069WS02003072 CONDUIT   1329.56     0  03:05      1.82    0.64    0.62
  WS02003060WS02003069 CONDUIT   1329.57     0  03:05      2.03    0.52    0.56
  WS02003059WS02003060 CONDUIT    412.06     0  03:16      0.95    0.27    0.77
  HS02004901HS02004770 CONDUIT     37.20     0  03:01      0.10    0.14    0.53
  HS02004876HS02004881 CONDUIT    127.62     0  03:01      1.21    1.36    0.15
  HS02004870HS02004876 CONDUIT    103.08     0  03:01      0.82    0.07    0.18
  HS02004842HS02004848 CONDUIT     16.84     0  03:01      0.07    0.01    0.33
  HS02004837HS02004842 CONDUIT     17.90     0  03:03      0.42    0.01    0.35
  HS02004830HS02004837 CONDUIT     64.63     0  03:01      0.67    0.06    0.14
  HS02004824HS02004830 CONDUIT     64.11     0  03:02      0.62    0.08    0.16
  HS02004817HS02004824 CONDUIT    123.86     0  03:01      0.31    0.06    0.58
  HS02004770HS02004777 CONDUIT    184.93     0  03:01      0.49    0.34    0.54
  HS02004799HS02004480 CONDUIT    444.27     0  03:01      1.07    0.56    0.60
  HS02004792HS02004799 CONDUIT    408.37     0  03:01      1.20    0.25    0.49
  HS02004788HS02004792 CONDUIT    232.93     0  03:02      1.28    0.15    0.26
  HS02004785HS02004788 CONDUIT    181.74     0  03:02      0.91    1.37    0.29
  HS02004777HS02004785 CONDUIT    182.02     0  03:01      0.57    0.22    0.45
  HS02004480HS02004478 CONDUIT    517.25     0  03:01      1.55    2.18    0.48
  HS02004479HS02004480 CONDUIT     77.30     0  03:02      0.30    0.07    0.57
  HS02004862HS02004870 CONDUIT     79.02     0  03:01      0.80    0.09    0.14
  HS02004848HS02004852 CONDUIT     37.84     0  03:01      0.53    0.04    0.10
  HS02004856HS02004862 CONDUIT     54.76     0  03:01      0.59    0.05    0.13
  HS02004852HS02004856 CONDUIT     37.75     0  03:02      0.34    0.04    0.16
  HS02004802HS02004478 CONDUIT    170.16     0  03:04      0.54    0.15    0.48
  HS02004478WS02006287 CONDUIT    677.57     0  03:02      2.11    0.19    0.36
  HS02004817HS02004807 CONDUIT    128.11     0  03:04      0.25    0.08    0.75
  HS02004807HS02004802 CONDUIT    165.31     0  03:04      0.46    0.32    0.53
  YS02001759YS02001757 CONDUIT    621.91     0  02:43      0.79    0.44    1.00
  YS02001762YS02001759 CONDUIT    316.22     0  02:43      0.40    0.36    1.00
  YS02001765YS02001762 CONDUIT    315.93     0  02:43      0.40    0.30    1.00
  YS02001770YS02001767 CONDUIT    315.48     0  02:43      0.40    1.25    1.00
  YS02001774YS02001770 CONDUIT    699.75     0  03:16      0.89    0.45    1.00
  YS02001779YS02001774 CONDUIT    699.79     0  03:16      0.89    0.35    1.00
  YS02001649YS02001757 CONDUIT    872.85     0  02:39      1.11    0.53    1.00
  YS02001767YS02001765 CONDUIT    316.20     0  02:43      0.40    0.40    1.00
  YS02006561YS02001783 CONDUIT    981.29     0  03:18      2.16    0.51    1.00
  YS02001783YS02001784 CONDUIT    981.48     0  03:18      1.95    1.35    1.00
  YS02001784YS02001785 CONDUIT    982.19     0  03:18      1.95    2.29    1.00
  YS02001788YS02001790 CONDUIT    982.27     0  03:18      2.44    0.72    1.00
  YS02001790YS02001791 CONDUIT    982.29     0  03:18      2.97    1.07    1.00
  YS02001791YS02001793 CONDUIT    983.02     0  03:18      5.90    0.42    1.00
  YS02001910YS02001907 CONDUIT    594.11     0  03:01      0.76    0.33    1.00
  YS02001786YS02001788 CONDUIT    982.09     0  03:18      2.31    1.89    1.00
  YS02001915YS02001910 CONDUIT    594.31     0  03:01      0.76    0.30    1.00
  YS02001918YS02001915 CONDUIT    293.63     0  02:48      0.44    0.16    1.00
  YS02001923YS02001920 CONDUIT    288.20     0  02:48      0.75    0.13    1.00
  YS02001926YS02001923 CONDUIT    289.52     0  02:48      0.86    0.41    0.98
  YS02001929YS02001926 CONDUIT    211.39     0  02:48      0.92    0.10    0.86
  YS02001920YS02001918 CONDUIT    291.67     0  02:48      0.72    0.28    1.00
  YS02001629YS02163301 CONDUIT    207.71     0  02:33      0.26    0.26    1.00
  YS02001619YS02001622 CONDUIT    380.73     0  03:01      0.59    0.56    1.00
  YS02001622YS02001625 CONDUIT    381.22     0  03:01      0.49    0.20    1.00
  YS02001625YS02001629 CONDUIT    196.18     0  02:39      0.25    0.09    1.00
  YS02163301YS02001633 CONDUIT    211.26     0  02:33      0.27    0.20    1.00
  YS02163601YS02164001 CONDUIT    412.49     0  02:39      0.53    0.37    1.00
  YS02164001YS02001641 CONDUIT    412.21     0  02:39      0.52    0.56    1.00
  YS02001641YS02001644 CONDUIT    412.88     0  02:33      0.53    1.33    1.00
  YS02001647YS02001649 CONDUIT    808.11     0  03:18      1.03    0.43    1.00
  YS02006553YS02006556 CONDUIT    708.68     0  03:46      0.90    0.61    1.00
  YS02006556YS02006558 CONDUIT    708.50     0  03:46      0.90    0.56    1.00
  YSB6556YSB1171       CONDUIT     42.83     0  03:02      0.13    0.04    0.82
  YS02001907YS02006553 CONDUIT    708.08     0  03:46      0.79    0.83    1.00
  YS02006558YS02006561 CONDUIT    981.47     0  03:19      3.49    2.17    1.00
  YS02001633YS02163601 CONDUIT    412.52     0  02:39      0.53    0.43    1.00
  YS02001644YS02001647 CONDUIT    808.24     0  03:18      1.03    0.47    1.00
  YS02001745YS02001748 CONDUIT    570.71     0  02:32      1.46    0.22    0.98
  YS02001748YS02001751 CONDUIT    443.04     0  03:01      1.03    0.22    1.00
  YS02001751YS02001754 CONDUIT    442.37     0  03:01      0.88    0.21    1.00
  YS02001754YS02001757 CONDUIT    442.89     0  03:01      0.56    0.18    1.00
  YS02001882YS02001884 CONDUIT     39.89     0  02:43      0.12    0.05    1.00
  YS02001884YS02001887 CONDUIT     39.91     0  02:43      0.08    0.05    1.00
  YS02001890YS02001895 CONDUIT    518.37     0  02:59      0.66    0.24    1.00
  YS02001895YS02001898 CONDUIT    518.69     0  02:59      0.66    0.90    1.00
  YS02001898YS02001901 CONDUIT    519.01     0  02:59      0.66    0.33    1.00
  YS02001901YS02001904 CONDUIT    518.39     0  02:59      0.66    0.80    1.00
  YS02001904YS02001907 CONDUIT    518.52     0  02:58      0.66    0.18    1.00
  YS02001887YS02001890 CONDUIT    679.45     0  03:01      0.87    1.16    1.00
  YS02001652YS02001649 CONDUIT    499.18     0  03:01      0.64    0.25    1.00
  YS02001655YS02001652 CONDUIT    498.77     0  03:01      0.94    0.24    1.00
  YS02001658YS02001655 CONDUIT    498.91     0  03:01      1.18    0.21    1.00
  YS02001661YS02001658 CONDUIT    594.17     0  02:29      1.52    0.23    1.00
  YS02001664YS02001661 CONDUIT    683.21     0  02:43      1.43    0.21    0.77
  YSB1154YSB6556       CONDUIT     43.26     0  03:01      0.18    0.08    0.73
  YSB1174YSB1171       CONDUIT     36.62     0  03:01      0.11    0.06    0.85
  YSB1171HS02004479    CONDUIT     75.45     0  03:02      0.54    0.05    0.68
  HS02004881HS02006253 CONDUIT    140.46     0  03:01      2.33    0.03    0.54
  YS02001793JiankangQianchi CONDUIT    998.20     0  02:40     16.48    0.08    1.00
  YS02001757CaochengTiaoxuchi CONDUIT   1680.06     0  02:40      2.17    0.74    1.00
  WSF200WS02003060     CONDUIT    938.92     0  03:04      1.93    0.21    0.45
  1                    CONDUIT   1331.86     0  03:07      3.59    0.46    0.48
  CC-Pump-1            PUMP       200.00     0  03:40              1.00
  CC-Pump-2            PUMP       200.00     0  03:40              1.00
  JK-Pump-1            PUMP       300.00     0  00:00              1.00
  JK-Pump-2            PUMP       683.00     0  00:00              1.00
  XR-Pump-1            PUMP        95.00     0  00:00              1.00
  XR-Pump-2            PUMP        95.00     0  00:00              1.00
  XR-Pump-3            PUMP        95.00     0  00:00              1.00
  XR-Pump-4            PUMP        95.00     0  00:00              1.00
  
  
  ***************************
  Flow Classification Summary
  ***************************
  
  -------------------------------------------------------------------------------------
                      Adjusted    ---------- Fraction of Time in Flow Class ---------- 
                       /Actual         Up    Down  Sub   Sup   Up    Down  Norm  Inlet 
  Conduit               Length    Dry  Dry   Dry   Crit  Crit  Crit  Crit  Ltd   Ctrl  
  -------------------------------------------------------------------------------------
  WS02003066WSF200        1.00   0.02  0.06  0.00  0.00  0.93  0.00  0.00  0.49  0.00
  WS02006287WS02006284    1.00   0.03  0.02  0.00  0.63  0.33  0.00  0.00  0.65  0.00
  WS02006284WS02006280    1.00   0.04  0.00  0.00  0.00  0.00  0.00  0.96  0.00  0.00
  WS02006280WS02006229    1.00   0.04  0.00  0.00  0.01  0.02  0.00  0.93  0.00  0.00
  WS02006229WS02006228    1.00   0.00  0.00  0.00  1.00  0.00  0.00  0.00  0.00  0.00
  WS02006256WS02006235    1.00   0.00  0.00  0.00  1.00  0.00  0.00  0.00  0.00  0.00
  WS02006253WS02006251    1.00   0.01  0.02  0.00  0.96  0.00  0.01  0.00  0.00  0.00
  WS02006252WS02006251    1.00   0.20  0.00  0.00  0.09  0.00  0.71  0.00  0.00  0.00
  WS02006251WS02006249    1.00   0.00  0.00  0.00  1.00  0.00  0.00  0.00  0.28  0.00
  WS02006249WS02006248    1.00   0.00  0.01  0.00  0.87  0.00  0.13  0.00  0.00  0.00
  WS02006248WS02006247    1.00   0.01  0.00  0.00  0.98  0.00  0.00  0.01  0.18  0.00
  WS02006247WS02006245    1.00   0.01  0.00  0.00  0.96  0.00  0.00  0.03  0.00  0.00
  WS02006245WS02006243    1.00   0.00  0.00  0.00  0.94  0.00  0.00  0.06  0.01  0.00
  WS02006243WS02006242    1.00   0.00  0.00  0.00  1.00  0.00  0.00  0.00  0.29  0.00
  WS02006242WS02006240    1.00   0.00  0.00  0.00  1.00  0.00  0.00  0.00  0.00  0.00
  WS02006240WS02006239    1.00   0.00  0.00  0.00  0.94  0.00  0.00  0.06  0.02  0.00
  WS02006239WS02006238    1.00   0.00  0.00  0.00  1.00  0.00  0.00  0.00  0.14  0.00
  WS02006238WS02006235    1.00   0.00  0.00  0.00  1.00  0.00  0.00  0.00  0.00  0.00
  WS02006235WS02006234    1.00   0.00  0.00  0.00  0.95  0.00  0.05  0.00  0.00  0.00
  WS02006234WS02006232    1.00   0.00  0.00  0.00  1.00  0.00  0.00  0.00  0.11  0.00
  WS02006232WS02006231    1.00   0.00  0.00  0.00  1.00  0.00  0.00  0.00  0.00  0.00
  WS02006231WS02006230    1.00   0.00  0.00  0.00  0.74  0.00  0.26  0.00  0.00  0.00
  WS02006230WS02006229    1.00   0.00  0.00  0.00  1.00  0.00  0.00  0.00  0.01  0.00
  WS02006228WS02006109    1.00   0.00  0.00  0.00  1.00  0.00  0.00  0.00  0.00  0.00
  WS02006116WS02004401    1.00   0.01  0.00  0.00  0.99  0.00  0.00  0.00  0.01  0.00
  WS02006115WS02006116    1.00   0.01  0.00  0.00  0.97  0.00  0.00  0.02  0.01  0.00
  WS02006113WS02006111    1.00   0.01  0.00  0.00  0.04  0.96  0.00  0.00  0.19  0.00
  WS02006112WS02006115    1.00   0.01  0.00  0.00  0.99  0.00  0.00  0.00  0.00  0.00
  WS02006111WS02006112    1.00   0.01  0.00  0.00  0.99  0.00  0.00  0.00  0.91  0.00
  WS02006110WS02006113    1.00   0.00  0.00  0.00  0.99  0.00  0.00  0.00  0.00  0.00
  WS02006109WS02006110    1.00   0.00  0.00  0.00  0.99  0.00  0.00  0.00  0.00  0.00
  WS02004411WS02004412    1.00   0.06  0.00  0.00  0.94  0.00  0.00  0.00  0.00  0.00
  WS02004401WS02004402    1.00   0.01  0.00  0.00  0.99  0.00  0.00  0.00  0.01  0.00
  WS02004413WS02003067    1.00   0.06  0.01  0.00  0.00  0.00  0.93  0.00  0.00  0.00
  WS02004412WS02004413    1.00   0.06  0.00  0.00  0.94  0.00  0.00  0.00  0.00  0.00
  WS02004410WS02004411    1.00   0.06  0.00  0.00  0.94  0.00  0.00  0.00  0.00  0.00
  WS02004409WS02004410    1.00   0.05  0.00  0.00  0.95  0.00  0.00  0.00  0.00  0.00
  WS02004407WS02004409    1.00   0.05  0.00  0.00  0.94  0.01  0.00  0.00  0.80  0.00
  WS02004406WS02004407    1.00   0.00  0.05  0.00  0.95  0.00  0.00  0.00  0.00  0.00
  WS02004405WS02004406    1.00   0.00  0.00  0.00  1.00  0.00  0.00  0.00  0.02  0.00
  WS02004404WS02004405    1.00   0.00  0.00  0.00  1.00  0.00  0.00  0.00  0.00  0.00
  WS02004403WS02004404    1.00   0.00  0.01  0.00  0.99  0.00  0.00  0.00  0.02  0.00
  WS02004402WS02004403    1.00   0.01  0.00  0.00  0.99  0.00  0.00  0.00  0.00  0.00
  WS02004139WS02001211    1.00   0.00  0.00  0.00  1.00  0.00  0.00  0.00  0.00  0.00
  WS02004138WS02004139    1.00   0.00  0.00  0.00  1.00  0.00  0.00  0.00  1.00  0.00
  WS02003067WS02003066    1.00   0.07  0.00  0.00  0.93  0.00  0.00  0.00  0.00  0.00
  WS02001213WS02003059    1.00   0.00  0.00  0.00  1.00  0.00  0.00  0.00  0.00  0.00
  WS02001212WS02001213    1.00   0.00  0.00  0.00  0.89  0.00  0.11  0.00  0.00  0.00
  WS02001211WS02001212    1.00   0.00  0.00  0.00  1.00  0.00  0.00  0.00  0.00  0.00
  WS02003072WS02003073    1.00   0.00  0.00  0.00  0.00  0.00  0.00  1.00  0.00  0.00
  WS02003069WS02003072    1.00   0.00  0.00  0.00  1.00  0.00  0.00  0.00  0.13  0.00
  WS02003060WS02003069    1.00   0.00  0.00  0.00  0.99  0.01  0.00  0.00  0.09  0.00
  WS02003059WS02003060    1.00   0.00  0.00  0.00  1.00  0.00  0.00  0.00  0.00  0.00
  HS02004901HS02004770    1.00   0.04  0.00  0.00  0.96  0.00  0.00  0.00  0.00  0.00
  HS02004876HS02004881    1.00   0.01  0.00  0.00  0.89  0.10  0.00  0.00  0.00  0.00
  HS02004870HS02004876    1.00   0.00  0.00  0.00  1.00  0.00  0.00  0.00  0.95  0.00
  HS02004842HS02004848    1.00   0.00  0.04  0.00  0.96  0.00  0.00  0.00  0.54  0.00
  HS02004837HS02004842    1.00   0.00  0.00  0.00  1.00  0.00  0.00  0.00  0.11  0.00
  HS02004830HS02004837    1.00   0.00  0.00  0.00  1.00  0.00  0.00  0.00  0.99  0.00
  HS02004824HS02004830    1.00   0.00  0.00  0.00  1.00  0.00  0.00  0.00  0.01  0.00
  HS02004817HS02004824    1.00   0.00  0.00  0.00  1.00  0.00  0.00  0.00  0.97  0.00
  HS02004770HS02004777    1.00   0.00  0.04  0.00  0.96  0.00  0.00  0.00  0.03  0.00
  HS02004799HS02004480    1.00   0.00  0.01  0.00  0.96  0.00  0.03  0.00  0.00  0.00
  HS02004792HS02004799    1.00   0.00  0.00  0.00  1.00  0.00  0.00  0.00  0.98  0.00
  HS02004788HS02004792    1.00   0.00  0.00  0.00  1.00  0.00  0.00  0.00  0.98  0.00
  HS02004785HS02004788    1.00   0.00  0.00  0.00  1.00  0.00  0.00  0.00  0.00  0.00
  HS02004777HS02004785    1.00   0.00  0.00  0.00  1.00  0.00  0.00  0.00  0.12  0.00
  HS02004480HS02004478    1.00   0.04  0.00  0.00  0.68  0.00  0.00  0.28  0.00  0.00
  HS02004479HS02004480    1.00   0.01  0.00  0.00  0.99  0.00  0.00  0.00  0.12  0.00
  HS02004862HS02004870    1.00   0.00  0.00  0.00  1.00  0.00  0.00  0.00  0.04  0.00
  HS02004848HS02004852    1.00   0.04  0.00  0.00  0.96  0.00  0.00  0.00  0.64  0.00
  HS02004856HS02004862    1.00   0.00  0.05  0.00  0.95  0.00  0.00  0.00  0.83  0.00
  HS02004852HS02004856    1.00   0.04  0.00  0.00  0.96  0.00  0.00  0.00  0.81  0.00
  HS02004802HS02004478    1.00   0.04  0.00  0.00  0.96  0.00  0.00  0.00  0.02  0.00
  HS02004478WS02006287    1.00   0.04  0.00  0.00  0.75  0.20  0.00  0.00  0.65  0.00
  HS02004817HS02004807    1.00   0.00  0.04  0.00  0.96  0.00  0.00  0.00  0.01  0.00
  HS02004807HS02004802    1.00   0.04  0.00  0.00  0.96  0.00  0.00  0.00  0.00  0.00
  YS02001759YS02001757    1.00   0.00  0.00  0.00  1.00  0.00  0.00  0.00  0.16  0.00
  YS02001762YS02001759    1.00   0.00  0.00  0.00  1.00  0.00  0.00  0.00  0.03  0.00
  YS02001765YS02001762    1.00   0.00  0.00  0.00  1.00  0.00  0.00  0.00  0.14  0.00
  YS02001770YS02001767    1.00   0.00  0.00  0.00  1.00  0.00  0.00  0.00  0.00  0.00
  YS02001774YS02001770    1.00   0.00  0.04  0.00  0.96  0.00  0.00  0.00  0.03  0.00
  YS02001779YS02001774    1.00   0.00  0.00  0.00  1.00  0.00  0.00  0.00  0.19  0.00
  YS02001649YS02001757    1.00   0.00  0.00  0.00  1.00  0.00  0.00  0.00  0.16  0.00
  YS02001767YS02001765    1.00   0.00  0.00  0.00  1.00  0.00  0.00  0.00  0.00  0.00
  YS02006561YS02001783    1.00   0.05  0.00  0.00  0.31  0.64  0.00  0.00  0.49  0.00
  YS02001783YS02001784    1.00   0.00  0.05  0.00  0.95  0.00  0.00  0.00  0.01  0.00
  YS02001784YS02001785    1.00   0.00  0.00  0.00  1.00  0.00  0.00  0.00  0.18  0.00
  YS02001788YS02001790    1.00   0.00  0.00  0.00  0.35  0.65  0.00  0.00  0.37  0.00
  YS02001790YS02001791    1.00   0.00  0.00  0.00  0.32  0.68  0.00  0.00  0.46  0.00
  YS02001791YS02001793    1.00   0.00  0.00  0.00  0.35  0.65  0.00  0.00  0.03  0.00
  YS02001910YS02001907    1.00   0.00  0.00  0.00  0.99  0.00  0.00  0.01  0.12  0.00
  YS02001786YS02001788    1.00   0.00  0.00  0.00  0.33  0.67  0.00  0.00  0.00  0.00
  YS02001915YS02001910    1.00   0.00  0.00  0.00  0.99  0.01  0.00  0.00  0.16  0.00
  YS02001918YS02001915    1.00   0.00  0.00  0.00  0.99  0.00  0.00  0.00  0.53  0.00
  YS02001923YS02001920    1.00   0.00  0.00  0.00  1.00  0.00  0.00  0.00  0.82  0.00
  YS02001926YS02001923    1.00   0.00  0.02  0.00  0.15  0.00  0.83  0.00  0.00  0.00
  YS02001929YS02001926    1.00   0.00  0.04  0.00  0.96  0.00  0.00  0.00  0.74  0.00
  YS02001920YS02001918    1.00   0.00  0.00  0.00  1.00  0.00  0.00  0.00  0.00  0.00
  YS02001629YS02163301    1.00   0.04  0.00  0.00  0.95  0.00  0.00  0.00  0.00  0.00
  YS02001619YS02001622    1.00   0.04  0.00  0.00  0.96  0.00  0.00  0.00  0.00  0.00
  YS02001622YS02001625    1.00   0.04  0.00  0.00  0.96  0.00  0.00  0.00  0.05  0.00
  YS02001625YS02001629    1.00   0.04  0.02  0.00  0.93  0.00  0.02  0.00  0.00  0.00
  YS02163301YS02001633    1.00   0.00  0.04  0.00  0.96  0.00  0.00  0.00  0.00  0.00
  YS02163601YS02164001    1.00   0.00  0.02  0.00  0.98  0.00  0.00  0.00  0.00  0.00
  YS02164001YS02001641    1.00   0.00  0.02  0.00  0.98  0.00  0.00  0.00  0.06  0.00
  YS02001641YS02001644    1.00   0.00  0.00  0.00  1.00  0.00  0.00  0.00  0.00  0.00
  YS02001647YS02001649    1.00   0.00  0.05  0.00  0.95  0.00  0.00  0.00  0.01  0.00
  YS02006553YS02006556    1.00   0.01  0.00  0.00  0.99  0.00  0.00  0.00  0.03  0.00
  YS02006556YS02006558    1.00   0.00  0.00  0.00  1.00  0.00  0.00  0.00  0.00  0.00
  YSB6556YSB1171          1.00   0.01  0.02  0.00  0.97  0.00  0.00  0.00  0.00  0.00
  YS02001907YS02006553    1.00   0.00  0.01  0.00  0.99  0.00  0.00  0.00  0.00  0.00
  YS02006558YS02006561    1.00   0.05  0.00  0.00  0.15  0.80  0.00  0.00  0.46  0.00
  YS02001633YS02163601    1.00   0.00  0.00  0.00  1.00  0.00  0.00  0.00  0.15  0.00
  YS02001644YS02001647    1.00   0.00  0.05  0.00  0.95  0.00  0.00  0.00  0.00  0.00
  YS02001745YS02001748    1.00   0.00  0.00  0.00  0.90  0.01  0.00  0.09  0.04  0.00
  YS02001748YS02001751    1.00   0.00  0.00  0.00  0.97  0.03  0.00  0.00  0.15  0.00
  YS02001751YS02001754    1.00   0.00  0.00  0.00  0.94  0.00  0.00  0.06  0.02  0.00
  YS02001754YS02001757    1.00   0.00  0.00  0.00  1.00  0.00  0.00  0.00  0.18  0.00
  YS02001882YS02001884    1.00   0.04  0.00  0.00  0.96  0.00  0.00  0.00  0.00  0.00
  YS02001884YS02001887    1.00   0.02  0.01  0.00  0.97  0.00  0.00  0.00  0.00  0.00
  YS02001890YS02001895    1.00   0.00  0.04  0.00  0.96  0.00  0.00  0.00  0.00  0.00
  YS02001895YS02001898    1.00   0.04  0.00  0.00  0.94  0.00  0.01  0.00  0.00  0.00
  YS02001898YS02001901    1.00   0.05  0.00  0.00  0.95  0.00  0.00  0.00  0.01  0.00
  YS02001901YS02001904    1.00   0.05  0.00  0.00  0.95  0.00  0.00  0.00  0.00  0.00
  YS02001904YS02001907    1.00   0.00  0.04  0.00  0.95  0.00  0.00  0.00  0.00  0.00
  YS02001887YS02001890    1.00   0.00  0.00  0.00  0.99  0.00  0.01  0.00  0.00  0.00
  YS02001652YS02001649    1.00   0.00  0.00  0.00  1.00  0.00  0.00  0.00  0.17  0.00
  YS02001655YS02001652    1.00   0.00  0.00  0.00  0.94  0.00  0.00  0.06  0.02  0.00
  YS02001658YS02001655    1.00   0.00  0.04  0.00  0.93  0.03  0.00  0.00  0.10  0.00
  YS02001661YS02001658    1.00   0.04  0.00  0.00  0.90  0.06  0.00  0.00  0.11  0.00
  YS02001664YS02001661    1.00   0.04  0.00  0.00  0.92  0.05  0.00  0.00  0.20  0.00
  YSB1154YSB6556          1.00   0.03  0.00  0.00  0.97  0.00  0.00  0.00  0.02  0.00
  YSB1174YSB1171          1.00   0.02  0.01  0.00  0.97  0.00  0.00  0.00  0.00  0.00
  YSB1171HS02004479       1.00   0.01  0.00  0.00  0.98  0.00  0.00  0.00  0.10  0.00
  HS02004881HS02006253    1.00   0.02  0.00  0.00  0.58  0.02  0.00  0.39  0.42  0.00
  YS02001793JiankangQianchi    1.00   0.00  0.00  0.00  0.67  0.33  0.00  0.00  0.40  0.00
  YS02001757CaochengTiaoxuchi    1.00   0.00  0.07  0.00  0.93  0.00  0.00  0.00  0.00  0.00
  WSF200WS02003060        1.00   0.00  0.02  0.00  0.97  0.01  0.00  0.00  0.40  0.00
  1                       1.00   0.00  0.00  0.00  0.00  1.00  0.00  0.00  0.50  0.00
  
  
  *************************
  Conduit Surcharge Summary
  *************************
  
  ----------------------------------------------------------------------------
                                                           Hours        Hours 
                         --------- Hours Full --------   Above Full   Capacity
  Conduit                Both Ends  Upstream  Dnstream   Normal Flow   Limited
  ----------------------------------------------------------------------------
  WS02006229WS02006228        3.27      3.43      3.27      4.58         3.27
  WS02006256WS02006235        5.42      5.42      6.66      4.22         0.01
  WS02006253WS02006251        1.34      1.34      1.43      0.01         0.03
  WS02006252WS02006251        1.27      1.27      1.97      1.57         0.01
  WS02006251WS02006249        1.35      1.37      1.44      0.91         0.69
  WS02006249WS02006248        1.35      1.35      1.44      2.27         0.01
  WS02006248WS02006247        1.42      1.42      1.61      0.01         0.01
  WS02006247WS02006245        1.58      1.66      1.58      2.90         1.41
  WS02006245WS02006243        1.62      1.63      1.71      0.34         0.29
  WS02006243WS02006242        1.78      1.78      2.22      0.01         0.01
  WS02006242WS02006240        1.99      1.99      2.39      1.58         0.01
  WS02006240WS02006239        2.04      2.07      2.19      0.88         0.52
  WS02006239WS02006238        2.53      2.58      2.81      1.06         0.67
  WS02006238WS02006235        2.75      2.75      3.10      0.01         0.01
[...]
  YS02001779YS02001774        5.56      5.56      5.74      0.01         0.01
  YS02001649YS02001757        5.76      5.76      5.86      0.01         0.01
  YS02001767YS02001765        5.70      5.70      5.72      0.01         0.01
  YS02006561YS02001783        0.95      0.95      1.18      0.01         0.01
  YS02001783YS02001784        1.14      1.18      1.14      1.57         1.14
  YS02001784YS02001785        1.09      1.14      1.09      2.51         1.09
  YS02001788YS02001790        1.03      1.03      1.86      0.01         0.01
  YS02001790YS02001791        1.85      1.86      1.96      1.07         1.05
  YS02001791YS02001793        1.96      1.96      2.36      0.01         0.01
  YS02001910YS02001907        1.24      1.24      1.91      0.01         0.01
  YS02001786YS02001788        1.03      1.09      1.03      2.12         1.03
  YS02001915YS02001910        1.06      1.06      1.24      0.01         0.01
  YS02001918YS02001915        0.90      0.90      1.06      0.01         0.01
  YS02001923YS02001920        0.75      0.75      0.93      0.01         0.01
  YS02001926YS02001923        0.01      0.01      0.01      0.01         0.01
  YS02001929YS02001926        0.01      0.01      0.01      0.01         0.01
  YS02001920YS02001918        0.90      0.90      0.93      0.01         0.01
  YS02001629YS02163301        5.67      5.67      5.69      0.01         0.01
  YS02001619YS02001622        5.37      5.37      5.40      0.01         0.01
  YS02001622YS02001625        5.40      5.40      5.64      0.01         0.01
  YS02001625YS02001629        5.38      5.38      5.64      0.01         0.01
  YS02163301YS02001633        5.69      5.69      5.72      0.01         0.01
  YS02163601YS02164001        5.72      5.72      5.75      0.01         0.01
  YS02164001YS02001641        5.72      5.72      5.73      0.01         0.03
  YS02001641YS02001644        5.73      5.73      5.73      1.72         1.97
  YS02001647YS02001649        5.62      5.62      5.76      0.01         0.01
  YS02006553YS02006556        1.47      1.47      2.00      0.01         0.01
  YS02006556YS02006558        1.67      1.67      2.08      0.01         0.01
  YSB6556YSB1171              0.01      0.01      0.07      0.01         0.01
  YS02001907YS02006553        2.53      2.53      2.75      0.01         0.01
  YS02006558YS02006561        1.06      1.43      1.06      2.35         1.06
  YS02001633YS02163601        5.71      5.71      5.75      0.01         0.01
  YS02001644YS02001647        5.62      5.62      5.73      0.01         0.01
  YS02001745YS02001748        0.01      0.01      5.22      0.01         0.01
  YS02001748YS02001751        5.27      5.27      5.37      0.01         0.01
  YS02001751YS02001754        5.37      5.37      5.58      0.01         0.01
  YS02001754YS02001757        5.62      5.62      5.86      0.01         0.01
  YS02001882YS02001884        1.08      1.08      1.09      0.01         0.01
  YS02001884YS02001887        1.14      1.14      1.17      0.01         0.01
  YS02001890YS02001895        1.06      1.06      1.26      0.01         0.01
  YS02001895YS02001898        1.04      1.04      1.06      0.01         0.01
  YS02001898YS02001901        1.06      1.06      1.13      0.01         0.01
  YS02001901YS02001904        1.11      1.11      1.13      0.01         0.01
  YS02001904YS02001907        1.11      1.11      2.02      0.01         0.01
  YS02001887YS02001890        1.19      1.19      1.22      0.16         0.01
  YS02001652YS02001649        5.63      5.63      5.76      0.01         0.01
  YS02001655YS02001652        5.39      5.39      5.61      0.01         0.01
  YS02001658YS02001655        5.25      5.25      5.39      0.01         0.01
  YS02001661YS02001658        0.10      0.10      5.25      0.01         0.01
  YS02001664YS02001661        0.01      0.01      1.36      0.01         0.01
  HS02004881HS02006253        0.01      0.01      0.77      0.01         0.01
  YS02001793JiankangQianchi        2.26      2.26      4.08      0.01         0.01
  YS02001757CaochengTiaoxuchi        5.11      5.11      5.86      0.01         0.01
  
  
  ***************
  Pumping Summary
  ***************
  
  ---------------------------------------------------------------------------------------------------------
                                                  Min       Avg       Max     Total     Power    % Time Off
                        Percent   Number of      Flow      Flow      Flow    Volume     Usage    Pump Curve
  Pump                 Utilized   Start-Ups       LPS       LPS       LPS  10^6 ltr     Kw-hr    Low   High
  ---------------------------------------------------------------------------------------------------------
  CC-Pump-1               48.94           5      0.00    130.90    200.00     1.800      1.93    0.0    0.0
  CC-Pump-2               38.29           5      0.00    113.07    200.00     1.320      1.56    0.0    0.0
  JK-Pump-1               59.57           4      0.00    217.19    300.00     3.620     53.90    0.0    0.0
  JK-Pump-2               57.44           5      0.00    402.49    683.00     6.532     89.90    0.0   95.1
  XR-Pump-1               97.87           2      0.00     94.35     95.00     2.565     24.38    0.0    0.0
  XR-Pump-2               95.74           3      0.00     93.01     95.00     2.451     22.10    0.0    0.0
  XR-Pump-3               95.74           3      0.00     92.48     95.00     2.394     20.79    0.0    0.0
  XR-Pump-4               95.74           3      0.00     92.48     95.00     2.394     20.79    0.0    0.0
  
  
  ***************************
  Link Pollutant Load Summary
  ***************************
  
  ------------------------------------------------------------------------------------------
                                 COD            SS            TN            TP         NH4-N
  Link                            kg            kg            kg            kg            kg
  ------------------------------------------------------------------------------------------
  WS02003066WSF200           823.176      1541.404        21.513         1.884        11.324
  WS02006287WS02006284       319.484       608.128        10.314         1.015         5.678
  WS02006284WS02006280       319.963       608.912        10.360         1.021         5.707
  WS02006280WS02006229       319.915       608.813        10.358         1.020         5.706
  WS02006229WS02006228       823.874      1542.316        21.059         1.816        11.019
  WS02006256WS02006235       211.569       393.209         4.499         0.342         2.253
  WS02006253WS02006251        66.463       129.632         1.532         0.119         0.771
  WS02006252WS02006251       266.538       486.086         5.573         0.403         2.742
  WS02006251WS02006249       321.519       595.057         6.852         0.504         3.387
  WS02006249WS02006248       295.615       545.811         6.319         0.465         3.126
  WS02006248WS02006247       295.785       546.129         6.322         0.465         3.127
  WS02006247WS02006245       295.744       546.060         6.320         0.465         3.126
  WS02006245WS02006243       295.596       545.880         6.308         0.463         3.119
  WS02006243WS02006242       296.156       546.909         6.322         0.465         3.126
  WS02006242WS02006240       297.593       549.494         6.355         0.467         3.143
  WS02006240WS02006239       299.394       552.666         6.399         0.471         3.165
  WS02006239WS02006238       301.176       555.539         6.457         0.476         3.197
  WS02006238WS02006235       301.990       556.710         6.485         0.479         3.213
  WS02006235WS02006234       506.333       937.505        10.784         0.803         5.359
  WS02006234WS02006232       506.060       937.026        10.779         0.803         5.357
  WS02006232WS02006231       505.621       936.239        10.768         0.802         5.351
  WS02006231WS02006230       505.492       936.027        10.764         0.802         5.349
  WS02006230WS02006229       504.743       934.794        10.740         0.800         5.336
  WS02006228WS02006109       822.898      1540.602        21.021         1.812        10.997
  WS02006116WS02004401       836.552      1565.251        21.835         1.910        11.489
  WS02006115WS02006116       837.917      1567.669        21.872         1.913        11.508
  WS02006113WS02006111       828.906      1549.788        21.743         1.904        11.454
  WS02006112WS02006115       839.082      1569.689        21.914         1.917        11.532
  WS02006111WS02006112       828.581      1549.270        21.734         1.903        11.449
  WS02006110WS02006113       829.399      1550.676        21.763         1.906        11.465
  WS02006109WS02006110       830.388      1552.405        21.806         1.911        11.490
  WS02004411WS02004412       826.381      1546.981        21.632         1.896        11.391
  WS02004401WS02004402       835.200      1562.882        21.791         1.906        11.464
  WS02004413WS02003067       823.908      1542.738        21.531         1.886        11.333
  WS02004412WS02004413       825.209      1544.927        21.598         1.893        11.372
  WS02004410WS02004411       827.431      1548.847        21.661         1.899        11.406
  WS02004409WS02004410       828.461      1550.662        21.692         1.902        11.423
  WS02004407WS02004409       829.398      1552.343        21.713         1.903        11.433
  WS02004406WS02004407       829.781      1553.070        21.715         1.903        11.434
  WS02004405WS02004406       831.629      1556.297        21.793         1.911        11.479
  WS02004404WS02004405       832.985      1558.787        21.798         1.910        11.477
  WS02004403WS02004404       832.696      1558.465        21.715         1.899        11.423
  WS02004402WS02004403       833.851      1560.489        21.753         1.902        11.444
  WS02004139WS02001211      1369.821      2274.840       111.121        13.563        68.493
  WS02004138WS02004139      1376.155      2285.415       111.612        13.623        68.794
  WS02003067WS02003066       823.336      1541.677        21.519         1.885        11.327
  WS02001213WS02003059      1403.023      2327.010       114.563        13.997        70.656
  WS02001212WS02001213      1412.255      2342.295       115.314        14.089        71.119
  WS02001211WS02001212      1414.183      2345.451       115.479        14.109        71.221
  WS02003072WS02003073      2326.703      4028.159       146.058        17.135        88.233
  WS02003069WS02003072      2331.553      4036.040       146.466        17.185        88.485
  WS02003060WS02003069      2334.191      4040.556       146.625        17.203        88.581
  WS02003059WS02003060      1400.203      2322.218       114.367        13.974        70.537
  HS02004901HS02004770        13.093        25.473         0.248         0.019         0.116
  HS02004876HS02004881        45.515        90.347         0.999         0.073         0.491
  HS02004870HS02004876        34.383        68.106         0.798         0.060         0.395
  HS02004842HS02004848         6.457        12.344         0.134         0.009         0.062
  HS02004837HS02004842        11.055        19.635         0.603         0.068         0.356
  HS02004830HS02004837        70.296       122.724         4.643         0.552         2.827
  HS02004824HS02004830        71.068       123.980         4.715         0.561         2.871
  HS02004817HS02004824        97.163       176.406         5.254         0.596         3.134
  HS02004770HS02004777        49.662        97.712         1.021         0.069         0.472
  HS02004799HS02004480       162.326       310.841         4.263         0.379         2.209
  HS02004792HS02004799       147.275       280.126         4.028         0.367         2.105
  HS02004788HS02004792        82.818       157.688         2.666         0.255         1.440
  HS02004785HS02004788        51.122       100.051         1.172         0.089         0.567
  HS02004777HS02004785        50.447        98.945         1.112         0.081         0.530
  HS02004480HS02004478       204.818       395.181         4.971         0.429         2.543
  HS02004479HS02004480        46.124        90.109         1.036         0.091         0.538
  HS02004862HS02004870        25.800        50.340         0.628         0.050         0.314
  HS02004848HS02004852        10.252        19.885         0.210         0.014         0.097
  HS02004856HS02004862        17.525        34.750         0.350         0.023         0.164
  HS02004852HS02004856        10.255        19.890         0.210         0.014         0.097
  HS02004802HS02004478       115.341       214.052         5.397         0.592         3.169
  HS02004478WS02006287       319.690       608.483        10.331         1.017         5.689
  HS02004817HS02004807        95.858       174.313         5.130         0.581         3.057
  HS02004807HS02004802       115.598       214.454         5.430         0.596         3.189
  YS02001759YS02001757       329.547       604.833         6.580         0.458         3.216
  YS02001762YS02001759       189.633       350.444         3.937         0.278         1.942
  YS02001765YS02001762       190.746       353.337         3.983         0.282         1.968
  YS02001770YS02001767       192.114       358.012         3.843         0.258         1.868
  YS02001774YS02001770       286.123       555.537         5.504         0.367         2.660
  YS02001779YS02001774       285.407       554.147         5.587         0.380         2.719
  YS02001649YS02001757       381.397       690.078         7.673         0.528         3.692
  YS02001767YS02001765       192.185       356.760         4.031         0.286         1.994
  YS02006561YS02001783      1019.072      1888.581        21.375         1.596        10.639
  YS02001783YS02001784      1018.979      1888.451        21.372         1.596        10.637
  YS02001784YS02001785      1026.308      1900.202        22.085         1.685        11.083
  YS02001788YS02001790      1026.917      1901.210        22.158         1.695        11.129
  YS02001790YS02001791      1027.905      1902.816        22.258         1.707        11.192
  YS02001791YS02001793      1027.836      1902.712        22.253         1.707        11.189
  YS02001910YS02001907       391.107       721.407         9.387         0.718         4.810
  YS02001786YS02001788      1026.521      1900.568        22.113         1.689        11.101
  YS02001915YS02001910       391.182       721.524         9.340         0.711         4.778
  YS02001918YS02001915       191.305       338.210         5.238         0.474         2.816
  YS02001923YS02001920       167.938       299.277         3.236         0.228         1.575
  YS02001926YS02001923       165.472       294.970         3.131         0.217         1.514
  YS02001929YS02001926       164.221       292.803         3.066         0.210         1.475
  YS02001920YS02001918       188.773       332.973         5.162         0.468         2.775
  YS02001629YS02163301        96.045       169.831         2.027         0.131         0.946
  YS02001619YS02001622       175.879       321.144         3.602         0.236         1.684
  YS02001622YS02001625       174.691       319.258         3.573         0.234         1.671
  YS02001625YS02001629        97.148       171.638         2.052         0.132         0.957
  YS02163301YS02001633        96.366       170.621         2.029         0.132         0.948
  YS02163601YS02164001       405.778       733.266         7.899         0.562         3.784
  YS02164001YS02001641       405.240       732.356         7.879         0.560         3.773
  YS02001641YS02001644       405.293       732.368         7.874         0.560         3.770
  YS02001647YS02001649       482.527       885.707         9.578         0.664         4.578
  YS02006553YS02006556       685.038      1258.778        14.747         1.130         7.424
  YS02006556YS02006558       685.026      1258.751        14.719         1.126         7.406
  YSB6556YSB1171              26.521        51.966         0.537         0.045         0.272
  YS02001907YS02006553       685.140      1258.983        14.756         1.131         7.430
  YS02006558YS02006561      1019.055      1888.542        21.374         1.596        10.638
  YS02001633YS02163601       406.500       734.388         7.880         0.558         3.768
  YS02001644YS02001647       488.188       895.865         9.667         0.670         4.619
  YS02001745YS02001748       249.894       467.235         5.491         0.380         2.728
  YS02001748YS02001751       247.919       463.502         5.528         0.388         2.761
  YS02001751YS02001754       246.956       461.901         5.517         0.389         2.757
  YS02001754YS02001757       247.717       463.041         5.681         0.411         2.864
  YS02001882YS02001884         3.207         5.546         0.065         0.005         0.032
  YS02001884YS02001887         6.717        11.888         0.133         0.010         0.066
  YS02001890YS02001895       451.047       846.617         8.303         0.624         4.050
  YS02001895YS02001898       450.902       846.439         8.297         0.624         4.047
  YS02001898YS02001901       450.683       846.067         8.292         0.623         4.044
  YS02001901YS02001904       450.542       845.875         8.299         0.625         4.049
  YS02001904YS02001907       450.772       846.229         8.352         0.632         4.083
  YS02001887YS02001890       468.247       880.724         8.645         0.653         4.223
  YS02001652YS02001649       201.109       373.982         4.047         0.291         1.898
  YS02001655YS02001652       201.706       374.955         4.062         0.293         1.906
  YS02001658YS02001655       201.144       374.054         3.974         0.281         1.848
  YS02001661YS02001658       204.607       380.254         4.044         0.286         1.881
  YS02001664YS02001661       218.473       402.830         4.361         0.307         2.025
  YSB1154YSB6556              26.084        51.269         0.486         0.038         0.239
  YSB1174YSB1171              18.020        35.561         0.361         0.029         0.180
  YSB1171HS02004479           46.089        90.054         1.039         0.092         0.540
  HS02004881HS02006253        51.470       102.513         1.106         0.080         0.542
  YS02001793JiankangQianchi      1028.484      1903.726        22.294         1.711        11.214
  YS02001757CaochengTiaoxuchi       597.053      1078.936        12.599         0.904         6.195
  WSF200WS02003060           823.156      1541.291        21.532         1.887        11.336
  1                         2332.437      4036.431       146.825        17.234        88.721
  CC-Pump-1                  153.635       280.114         3.213         0.233         1.581
  CC-Pump-2                  112.804       205.793         2.356         0.170         1.159
  JK-Pump-1                  263.354       494.490         5.438         0.407         2.702
  JK-Pump-2                  548.124      1027.625        11.401         0.855         5.675
  XR-Pump-1                  366.779       607.794        30.058         3.674        18.543
  XR-Pump-2                  346.227       574.901        28.106         3.431        17.325
  XR-Pump-3                  333.482       554.508        26.882         3.278        16.560
  XR-Pump-4                  333.482       554.508        26.882         3.278        16.560
  

  Analysis begun on:  Thu Jul 15 17:24:32 2021
  Analysis ended on:  Thu Jul 15 17:24:36 2021
  Total elapsed time: 00:00:04