
  EPA STORM WATER MANAGEMENT MODEL - VERSION 5.1 (Build 5.3.0.dev0)
  --------------------------------------------------------------

  WARNING 04: minimum elevation drop used for Conduit WS02004404WS02004405
  WARNING 03: negative offset ignored for Link YS02001904YS02001907
  
  *********************************************************
  NOTE: The summary statistics displayed in this report are
  based on results found at every computational time step,  
  not just on results from each reporting time step.
  *********************************************************
  
  ****************
  Analysis Options
  ****************
  Flow Units ............... LPS
  Process Models:
    Rainfall/Runoff ........ YES
    RDII ................... NO
    Snowmelt ............... NO
    Groundwater ............ NO
    Flow Routing ........... YES
    Ponding Allowed ........ NO
    Water Quality .......... YES
  Infiltration Method ...... HORTON
  Flow Routing Method ...... DYNWAVE
  Surcharge Method ......... EXTRAN
  Starting Date ............ 08/28/2015 08:00:00
  Ending Date .............. 08/28/2015 15:50:00
  Antecedent Dry Days ...... 8.0
  Report Time Step ......... 00:01:00
  Wet Time Step ............ 00:01:00
  Dry Time Step ............ 00:01:00
  Routing Time Step ........ 5.00 sec
  Variable Time Step ....... YES
  Maximum Trials ........... 8
  Number of Threads ........ 4
  Head Tolerance ........... 0.001500 m
  
  
  **************************        Volume         Depth
  Runoff Quantity Continuity     hectare-m            mm
  **************************     ---------       -------
  Total Precipitation ......         6.144        13.452
  Evaporation Loss .........         0.000         0.000
  Infiltration Loss ........         1.064         2.328
  Surface Runoff ...........         4.147         9.079
  Final Storage ............         0.935         2.047
  Continuity Error (%) .....        -0.020
  
  
  **************************           COD            SS            TN            TP         NH4-N
  Runoff Quality Continuity             kg            kg            kg            kg            kg
  **************************    ----------    ----------    ----------    ----------    ----------
  Initial Buildup ..........     41378.656     70582.865      1804.177       168.684      1032.807
  Surface Buildup ..........        21.799        40.924         2.400         0.218         1.395
  Wet Deposition ...........         0.000         0.000         0.000         0.000         0.000
  Sweeping Removal .........         0.000         0.000         0.000         0.000         0.000
  Infiltration Loss ........        97.311       184.943         1.849         0.130         0.881
  BMP Removal ..............         0.000         0.000         0.000         0.000         0.000
  Surface Runoff ...........      3769.819      7064.251        72.781         4.964        34.599
  Remaining Buildup ........     37531.916     63371.884      1731.919       163.806       998.709
  Continuity Error (%) .....         0.003         0.004         0.002         0.001         0.001
  
  
  **************************        Volume        Volume
  Flow Routing Continuity        hectare-m      10^6 ltr
  **************************     ---------     ---------
  Dry Weather Inflow .......         0.616         6.165
  Wet Weather Inflow .......         4.145        41.453
  Groundwater Inflow .......         0.000         0.000
  RDII Inflow ..............         0.000         0.000
  External Inflow ..........         0.102         1.024
  External Outflow .........         1.844        18.441
  Flooding Loss ............         2.587        25.868
  Evaporation Loss .........         0.000         0.000
  Exfiltration Loss ........         0.000         0.000
  Initial Stored Volume ....         0.076         0.761
  Final Stored Volume ......         0.617         6.169
  Continuity Error (%) .....        -2.177
  
  
  **************************           COD            SS            TN            TP         NH4-N
  Quality Routing Continuity            kg            kg            kg            kg            kg
  **************************    ----------    ----------    ----------    ----------    ----------
  Dry Weather Inflow .......      1541.201      2465.922       147.955        18.494        92.472
  Wet Weather Inflow .......      3769.239      7063.335        72.768         4.964        34.593
  Groundwater Inflow .......         0.000         0.000         0.000         0.000         0.000
  RDII Inflow ..............         0.000         0.000         0.000         0.000         0.000
  External Inflow ..........       183.418       293.469        17.608         2.201        11.005
  External Outflow .........      2273.416      3923.420       146.952        17.333        89.009
  Flooding Loss ............      2558.917      4755.457        64.476         5.535        33.692
  Exfiltration Loss ........         0.000         0.000         0.000         0.000         0.000
  Mass Reacted .............         0.000         0.000         0.000         0.000         0.000
  Initial Stored Mass ......         0.000         0.000         0.000         0.000         0.000
  Final Stored Mass ........       557.939       967.894        24.406         2.600        14.110
  Continuity Error (%) .....         1.885         1.791         1.047         0.742         0.912
  
  
  *************************
  Highest Continuity Errors
  *************************
  Node HS02004842 (13.41%)
  Node YS02001884 (11.64%)
  Node JK-storage (-10.04%)
  Node HS02004817 (2.53%)
  Node YSB1171 (2.46%)
  
  
  ***************************
  Time-Step Critical Elements
  ***************************
  Link WS02006252WS02006251 (44.65%)
  Link WS02006280WS02006229 (14.38%)
  Link YS02001793JiankangQianchi (8.99%)
  Link YS02006556YS02006558 (6.17%)
  Link WS02006238WS02006235 (6.02%)
  
  
  ********************************
  Highest Flow Instability Indexes
  ********************************
  Link WS02006113WS02006111 (45)
  Link YS02163601YS02164001 (32)
  Link YS02001619YS02001622 (31)
  Link YS02001629YS02163301 (30)
  Link YS02163301YS02001633 (30)
  
  
  *************************
  Routing Time Step Summary
  *************************
  Minimum Time Step           :     0.50 sec
  Average Time Step           :     1.58 sec
  Maximum Time Step           :     5.00 sec
  Percent in Steady State     :    -0.00
  Average Iterations per Step :     3.97
  Percent Not Converging      :    17.16
  
  
  ***************************
  Subcatchment Runoff Summary
  ***************************
  
  ------------------------------------------------------------------------------------------------------------------------------
                            Total      Total      Total      Total     Imperv       Perv      Total       Total     Peak  Runoff
                           Precip      Runon       Evap      Infil     Runoff     Runoff     Runoff      Runoff   Runoff   Coeff
  Subcatchment                 mm         mm         mm         mm         mm         mm         mm    10^6 ltr      LPS
  ------------------------------------------------------------------------------------------------------------------------------
  sub0                      13.45       0.00       0.00       0.63      12.47       0.31      12.77        0.01     3.75   0.950
  sub1                      13.45       0.00       0.00       1.12      11.88       0.36      12.24        0.08    25.66   0.910
  sub2                      13.45       0.00       0.00       4.44       8.39       0.53       8.92        0.08    25.29   0.663
  sub3                      13.45       0.00       0.00       4.56       8.35       0.42       8.77        0.20    55.75   0.652
  sub4                      13.45       0.00       0.00       1.22      11.71       0.26      11.97        0.25    65.52   0.890
  sub5                      13.45       0.00       0.00       0.68      12.41       0.26      12.67        0.14    44.76   0.942
  sub7                      13.45       0.00       0.00       0.86      12.18       0.35      12.53        0.04    14.26   0.931
  sub8                      13.45       0.00       0.00       0.87      12.17       0.34      12.50        0.08    26.26   0.930
  sub9                      13.45       0.00       0.00       0.88      12.17       0.33      12.50        0.06    19.64   0.929
  sub10                     13.45       0.00       0.00       0.78      12.29       0.29      12.58        0.14    44.00   0.935
  sub11                     13.45       0.00       0.00       0.77      12.30       0.31      12.61        0.15    48.45   0.938
  sub12                     13.45       0.00       0.00       1.25      11.66       0.50      12.16        0.11    38.10   0.904
  sub14                     13.45       0.00       0.00       0.88      12.16       0.33      12.49        0.12    38.67   0.929
  sub15                     13.45       0.00       0.00       3.37       9.35       0.66      10.01        0.17    57.01   0.744
  sub16                     13.45       0.00       0.00       3.56       8.97       0.88       9.85        0.10    37.63   0.732
  sub17                     13.45       0.00       0.00       3.47       9.10       0.84       9.94        0.09    30.67   0.739
  sub22                     13.45       0.00       0.00       4.98       7.63       0.81       8.43        0.53   184.54   0.627
  sub23                     13.45       0.00       0.00       4.17       8.43       0.81       9.24        0.44   154.22   0.687
  sub60                     13.45       0.00       0.00       1.53       9.85       0.09       9.93        3.01   438.14   0.738
  sub61                     13.45       0.00       0.00       2.16       9.95       0.12      10.07        3.11   536.45   0.749
  sub62                     13.45       0.00       0.00       0.98      10.84       0.10      10.94        3.36   552.35   0.813
  sub63                     13.45       0.00       0.00       3.77       8.69       0.14       8.83        2.67   492.63   0.656
  sub64                     13.45       0.00       0.00       1.93       9.45       0.09       9.54        2.90   416.72   0.709
  sub65                     13.45       0.00       0.00       1.67       9.61       0.08       9.70        2.98   423.09   0.721
  sub66                     13.45       0.00       0.00       3.81       8.10       0.09       8.18        2.51   380.66   0.608
  sub67                     13.45       0.00       0.00       0.95      11.38       0.13      11.51        3.55   679.52   0.856
  sub68                     13.45       0.00       0.00       1.75      10.45       0.13      10.59        3.26   586.26   0.787
  sub69                     13.45       0.00       0.00       1.83      10.79       0.19      10.98        2.57   544.72   0.816
  sub70                     13.45      11.20       0.00       7.51      14.65       0.88      15.52        3.55   494.81   0.630
  sub71                     13.45       0.00       0.00       0.99      10.58       0.09      10.67        2.52   389.24   0.793
  sub72                     13.45       0.00       0.00       0.89       8.56       0.05       8.61        1.75   189.18   0.640
  1                         13.45      15.11       0.00       1.37      16.56       4.63      21.19        4.98   484.42   0.742
  2                         13.45       0.00       0.00       3.02       3.21       1.96       5.17        2.07   340.45   0.384
  
  
  ****************************
  Subcatchment Washoff Summary
  ****************************
  
  ------------------------------------------------------------------------------------------
                                 COD            SS            TN            TP         NH4-N
  Subcatchment                    kg            kg            kg            kg            kg
  ------------------------------------------------------------------------------------------
  sub0                         2.670         5.197         0.046         0.004         0.022
  sub1                        11.241        22.423         0.210         0.015         0.101
  sub2                         6.894        13.384         0.145         0.010         0.067
  sub3                        16.924        32.573         0.350         0.024         0.161
  sub4                        25.772        51.904         0.510         0.031         0.245
  sub5                        25.778        50.682         0.460         0.035         0.223
  sub7                         5.751        11.638         0.108         0.007         0.052
  sub8                         8.581        17.755         0.171         0.010         0.082
  sub9                         7.353        15.005         0.142         0.009         0.068
  sub10                       21.202        42.223         0.389         0.028         0.188
  sub11                       20.657        41.614         0.386         0.026         0.187
  sub12                       17.724        35.094         0.321         0.024         0.155
  sub14                       15.732        31.800         0.298         0.020         0.144
  sub15                       20.231        39.321         0.389         0.028         0.182
  sub16                       13.129        25.518         0.249         0.019         0.117
  sub17                       12.049        23.208         0.222         0.017         0.105
  sub22                       62.582       119.432         1.186         0.090         0.554
  sub23                       36.683        72.439         0.776         0.051         0.357
  sub60                      243.520       456.962         4.842         0.298         2.321
  sub61                      302.151       564.434         5.627         0.386         2.710
  sub62                      313.722       596.076         6.119         0.388         2.938
  sub63                      223.275       410.850         4.468         0.314         2.075
  sub64                      305.877       553.773         5.626         0.410         2.687
  sub65                      313.037       569.066         5.795         0.415         2.772
  sub66                      176.068       321.340         3.608         0.236         1.687
  sub67                      466.222       877.505         8.365         0.616         4.045
  sub68                      332.037       626.413         6.347         0.429         3.034
  sub69                      298.258       568.561         5.590         0.393         2.674
  sub70                      502.897       962.303        10.037         0.699         4.710
  sub71                      206.745       396.330         4.242         0.246         2.030
  sub72                      164.385       293.107         3.069         0.210         1.476
  1                          349.075       671.606         7.102         0.495         3.297
  2                           42.749        75.577         1.214         0.073         0.518
  ------------------------------------------------------------------------------------------
  System                    4570.974      8595.115        88.408         6.057        41.983
  
  
  ******************
  Node Depth Summary
  ******************
  
  ---------------------------------------------------------------------------------
                                 Average  Maximum  Maximum  Time of Max    Reported
                                   Depth    Depth      HGL   Occurrence   Max Depth
  Node                 Type       Meters   Meters   Meters  days hr:min      Meters
  ---------------------------------------------------------------------------------
  WS02001211           JUNCTION     0.77     0.85     5.68     0  03:07        0.85
  WS02001212           JUNCTION     0.48     0.58     5.64     0  03:07        0.58
  WS02001213           JUNCTION     0.71     0.85     5.61     0  03:06        0.85
  WS02003069           JUNCTION     0.50     0.71     5.30     0  03:06        0.71
  WS02003072           JUNCTION     0.56     0.76     5.13     0  03:06        0.76
  WS02003073           JUNCTION     0.34     0.48     4.54     0  03:07        0.48
  WS02003060           JUNCTION     0.44     0.63     5.56     0  03:05        0.63
  WS02003066           JUNCTION     0.23     0.39     5.94     0  03:04        0.39
  WS02003059           JUNCTION     0.76     0.91     5.59     0  03:06        0.91
  WS02003067           JUNCTION     0.56     0.82     6.14     0  03:03        0.82
  WS02004401           JUNCTION     0.69     1.26     7.26     0  03:00        1.23
  WS02004402           JUNCTION     0.72     1.25     7.21     0  02:59        1.22
  WS02004403           JUNCTION     0.74     1.22     7.15     0  02:59        1.20
  WS02004404           JUNCTION     0.81     1.27     7.12     0  02:59        1.24
  WS02004406           JUNCTION     0.81     1.18     7.01     0  02:59        1.16
  WS02004409           JUNCTION     0.50     0.96     6.73     0  03:03        0.96
  WS02004410           JUNCTION     0.51     0.95     6.67     0  03:03        0.95
  WS02004411           JUNCTION     0.53     0.93     6.61     0  03:03        0.93
  WS02004412           JUNCTION     0.54     0.90     6.54     0  03:03        0.90
  WS02004413           JUNCTION     0.69     1.02     6.49     0  03:03        1.02
  WS02004405           JUNCTION     0.80     1.24     7.09     0  02:59        1.21
  WS02006109           JUNCTION     0.79     1.65     8.27     0  03:02        1.64
  WS02006110           JUNCTION     0.77     1.45     8.03     0  03:03        1.44
  WS02006111           JUNCTION     0.24     0.94     7.65     0  02:59        0.88
  WS02006112           JUNCTION     0.87     1.58     7.47     0  03:00        1.56
  WS02006113           JUNCTION     0.35     0.97     7.87     0  02:59        0.92
  WS02006115           JUNCTION     0.59     1.25     7.39     0  03:00        1.22
  WS02006116           JUNCTION     0.67     1.29     7.33     0  03:00        1.26
  WS02006230           JUNCTION     0.79     1.87     8.62     0  03:02        1.87
  WS02006231           JUNCTION     0.54     1.51     8.64     0  03:02        1.51
  WS02006232           JUNCTION     0.67     1.62     8.66     0  03:00        1.61
  WS02006234           JUNCTION     0.60     1.53     8.69     0  03:00        1.52
  WS02006235           JUNCTION     0.64     1.54     8.71     0  03:00        1.52
  WS02006238           JUNCTION     0.66     1.56     8.70     0  03:00        1.55
  WS02006240           JUNCTION     0.56     1.41     8.70     0  03:00        1.40
  WS02006242           JUNCTION     0.61     1.43     8.70     0  03:00        1.42
  WS02006243           JUNCTION     0.50     1.28     8.70     0  03:00        1.27
  WS02006245           JUNCTION     0.47     1.21     8.70     0  03:00        1.21
  WS02006247           JUNCTION     0.48     1.35     8.85     0  06:51        1.19
  WS02006248           JUNCTION     0.42     1.10     8.69     0  02:59        1.10
  WS02006249           JUNCTION     0.44     1.09     8.69     0  02:57        1.09
  WS02006239           JUNCTION     0.62     1.50     8.70     0  03:00        1.48
  WS02006251           JUNCTION     0.42     1.50     9.17     0  02:57        1.14
  WS02006252           JUNCTION     0.25     0.97     9.21     0  02:57        0.68
  WS02006253           JUNCTION     0.45     1.56     9.20     0  02:57        1.17
  WS02006256           JUNCTION     1.69     2.35     9.28     0  00:00        2.35
  WS02004138           JUNCTION     0.19     0.20     7.45     0  00:00        0.19
  WS02004139           JUNCTION     0.71     0.79     5.70     0  03:07        0.79
  WS02004407           JUNCTION     0.22     0.40     6.71     0  03:01        0.40
  WS02006228           JUNCTION     0.80     1.82     8.47     0  03:02        1.82
  WS02006229           JUNCTION     0.79     1.90     8.59     0  03:02        1.89
  WS02006280           JUNCTION     0.08     0.30     8.57     0  03:05        0.30
  WS02006284           JUNCTION     0.38     0.65     9.04     0  03:02        0.64
  WS02006287           JUNCTION     0.12     0.39     9.34     0  03:02        0.39
  WSF200               JUNCTION     0.22     0.44     5.67     0  03:03        0.44
  HS02004901           JUNCTION     0.14     0.38    10.20     0  03:01        0.37
  HS02004881           JUNCTION     0.01     0.05     9.08     0  03:01        0.05
  HS02004876           JUNCTION     0.05     0.16     9.19     0  03:01        0.16
  HS02004870           JUNCTION     0.02     0.09     9.38     0  03:01        0.09
  HS02004862           JUNCTION     0.02     0.11     9.49     0  03:01        0.11
  HS02004856           JUNCTION     0.08     0.15     9.58     0  03:01        0.15
  HS02004852           JUNCTION     0.01     0.07     9.59     0  03:02        0.07
  HS02004848           JUNCTION     0.01     0.07     9.67     0  03:01        0.07
  HS02004842           JUNCTION     0.34     0.40     9.67     0  03:01        0.40
  HS02004837           JUNCTION     0.03     0.09     9.67     0  03:01        0.09
  HS02004830           JUNCTION     0.04     0.10     9.57     0  03:02        0.10
  HS02004824           JUNCTION     0.03     0.13     9.53     0  03:02        0.13
  HS02004817           JUNCTION     0.45     0.69     9.54     0  03:02        0.69
  HS02004807           JUNCTION     0.14     0.36     9.53     0  03:02        0.36
  HS02004802           JUNCTION     0.18     0.39     9.52     0  03:02        0.39
  HS02004799           JUNCTION     0.14     0.46     9.68     0  03:01        0.46
  HS02004792           JUNCTION     0.04     0.22     9.74     0  03:01        0.21
  HS02004788           JUNCTION     0.03     0.16    10.05     0  03:02        0.16
  HS02004785           JUNCTION     0.06     0.25    10.15     0  03:02        0.25
  HS02004777           JUNCTION     0.16     0.39    10.19     0  03:01        0.39
  HS02004770           JUNCTION     0.13     0.37    10.20     0  03:01        0.36
  HS02004480           JUNCTION     0.10     0.38     9.62     0  03:01        0.38
  HS02004479           JUNCTION     0.14     0.42     9.62     0  03:01        0.42
  HS02004478           JUNCTION     0.07     0.28     9.50     0  03:01        0.28
  YS02001745           JUNCTION     0.70     0.95     8.47     0  03:01        0.95
  YS02001748           JUNCTION     1.09     1.69     8.76     0  02:32        1.38
  YS02001751           JUNCTION     1.27     1.58     8.46     0  03:00        1.57
  YS02001754           JUNCTION     1.51     1.84     8.45     0  03:00        1.82
  YS02001762           JUNCTION     1.71     2.05     8.45     0  03:00        2.03
  YS02001765           JUNCTION     1.66     2.00     8.45     0  03:00        1.98
  YS02001767           JUNCTION     1.63     1.95     8.44     0  03:00        1.94
  YS02001770           JUNCTION     1.62     1.94     8.43     0  03:00        1.92
  YS02001774           JUNCTION     1.69     1.99     8.41     0  03:00        1.98
  YS02001779           JUNCTION     1.43     1.68     8.37     0  02:41        1.68
  YS02001882           JUNCTION     0.63     1.65     8.36     0  02:47        1.63
  YS02001884           JUNCTION     0.73     1.74     8.36     0  02:47        1.73
  YS02001759           JUNCTION     1.74     2.09     8.45     0  03:00        2.07
  YS02001887           JUNCTION     0.80     1.81     8.35     0  03:01        1.81
  YS02001890           JUNCTION     0.83     1.81     8.32     0  02:47        1.81
  YS02001898           JUNCTION     0.60     1.57     8.31     0  02:47        1.56
  YS02001901           JUNCTION     0.72     1.68     8.29     0  02:47        1.67
  YS02001904           JUNCTION     0.69     1.64     8.27     0  03:01        1.63
  YS02001907           JUNCTION     1.02     1.96     8.25     0  02:47        1.96
  YS02001910           JUNCTION     0.81     1.79     8.30     0  02:48        1.78
  YS02001915           JUNCTION     0.62     1.63     8.35     0  02:48        1.59
  YS02001918           JUNCTION     0.36     1.34     8.40     0  02:48        1.27
  YS02001619           JUNCTION     1.23     1.50     8.43     0  02:33        1.49
  YS02001629           JUNCTION     1.57     1.85     8.40     0  02:36        1.84
  YS02001641           JUNCTION     1.67     1.94     8.37     0  02:59        1.93
  YS02001644           JUNCTION     1.67     1.92     8.35     0  02:39        1.92
  YS02001652           JUNCTION     1.53     2.12     8.72     0  02:43        1.86
  YS02001655           JUNCTION     1.29     2.14     8.99     0  02:43        1.63
  YS02001920           JUNCTION     0.45     1.43     8.44     0  02:48        1.35
  YS02001923           JUNCTION     0.28     1.20     8.46     0  02:48        1.11
  YS02001926           JUNCTION     0.32     1.19     8.64     0  02:48        0.89
  YS02001929           JUNCTION     0.19     0.76     8.45     0  02:48        0.76
  YS02001658           JUNCTION     1.03     2.14     9.28     0  02:43        1.42
  YS02001661           JUNCTION     0.81     2.13     9.54     0  02:43        1.32
  YS02001664           JUNCTION     0.36     0.57     8.49     0  04:16        0.56
  YS02001622           JUNCTION     1.25     1.51     8.42     0  02:33        1.51
  YS02001633           JUNCTION     1.66     1.95     8.40     0  02:55        1.94
  YS02001649           JUNCTION     1.72     2.05     8.44     0  02:42        2.03
  YS02001757           JUNCTION     1.84     2.18     8.44     0  03:05        2.16
  YS02001895           JUNCTION     0.59     1.57     8.32     0  02:47        1.56
  YS02001625           JUNCTION     1.53     1.78     8.38     0  02:33        1.78
  YS02163301           JUNCTION     1.60     1.88     8.40     0  02:57        1.88
  YS02163601           JUNCTION     1.71     1.99     8.39     0  02:59        1.98
  YS02164001           JUNCTION     1.65     1.92     8.38     0  07:05        1.91
  YS02001647           JUNCTION     1.51     1.80     8.41     0  02:52        1.78
  YSB1154              JUNCTION     0.27     0.57     9.62     0  03:01        0.57
  YSB6556              JUNCTION     0.17     0.45     9.62     0  03:02        0.45
  YSB1174              JUNCTION     0.23     0.52     9.62     0  03:01        0.51
  YSB1171              JUNCTION     0.43     0.72     9.62     0  03:01        0.72
  YS02006553           JUNCTION     1.02     1.97     8.26     0  03:00        1.96
  YS02006561           JUNCTION     0.37     1.10     7.76     0  02:47        1.08
  YS02006556           JUNCTION     0.99     1.93     8.24     0  03:00        1.93
  YS02006558           JUNCTION     1.03     1.98     8.25     0  03:00        1.97
  YS02001783           JUNCTION     0.59     1.49     7.63     0  02:47        1.48
  YS02001784           JUNCTION     0.60     1.67     7.74     0  02:43        1.41
  YS02001786           JUNCTION     0.53     1.84     7.87     0  02:43        1.25
  YS02001788           JUNCTION     0.45     1.77     7.75     0  02:43        1.13
  YS02001790           JUNCTION     0.57     1.96     7.60     0  02:42        1.29
  YS02001791           JUNCTION     0.53     2.72     8.19     0  02:42        1.28
  YS02001793           JUNCTION     0.74     2.25     7.08     0  02:42        1.80
  WSC                  OUTFALL      0.34     0.48     1.15     0  03:07        0.48
  JK-storage           STORAGE      3.04     5.80     6.60     0  02:43        5.80
  CC-storage           STORAGE      1.10     1.42     8.42     0  03:13        1.42
  XR-storage           STORAGE      6.32     7.72     5.72     0  03:00        7.72
  
  
  *******************
  Node Inflow Summary
  *******************
  
  -------------------------------------------------------------------------------------------------
                                  Maximum  Maximum                  Lateral       Total        Flow
                                  Lateral    Total  Time of Max      Inflow      Inflow     Balance
                                   Inflow   Inflow   Occurrence      Volume      Volume       Error
  Node                 Type           LPS      LPS  days hr:min    10^6 ltr    10^6 ltr     Percent
  -------------------------------------------------------------------------------------------------
  WS02001211           JUNCTION      7.35   390.27     0  03:16       0.207        10.1       0.409
  WS02001212           JUNCTION      0.00   393.18     0  03:16           0        10.1       0.249
  WS02001213           JUNCTION      0.00   395.68     0  03:16           0        10.1       0.298
  WS02003069           JUNCTION      0.32  1316.45     0  03:06     0.00902        18.5       0.215
  WS02003072           JUNCTION      0.00  1316.19     0  03:06           0        18.5       0.252
  WS02003073           JUNCTION      1.82  1318.36     0  03:07      0.0514        18.5       0.297
  WS02003060           JUNCTION     16.53  1316.09     0  03:05       0.466        18.6       0.202
  WS02003066           JUNCTION      0.00   937.51     0  03:04           0         8.1       0.068
  WS02003059           JUNCTION      0.00   398.55     0  03:15           0          10       0.417
  WS02003067           JUNCTION      0.00   937.21     0  03:04           0        8.11       0.133
  WS02004401           JUNCTION      0.00   938.33     0  03:02           0        8.38       0.292
  WS02004402           JUNCTION      0.00   938.86     0  03:03           0        8.36       0.272
  WS02004403           JUNCTION      0.00   938.69     0  03:01           0        8.34       0.243
  WS02004404           JUNCTION      0.16   939.57     0  03:01     0.00457        8.32       0.178
  WS02004406           JUNCTION      0.00   939.94     0  03:01           0        8.29       0.436
  WS02004409           JUNCTION      0.00   938.55     0  03:01           0        8.24       0.254
  WS02004410           JUNCTION      0.00   937.61     0  03:03           0        8.22       0.281
  WS02004411           JUNCTION      0.00   936.61     0  03:03           0         8.2       0.283
  WS02004412           JUNCTION      0.00   936.97     0  03:03           0        8.17       0.298
  WS02004413           JUNCTION      0.00   937.14     0  03:04           0        8.15       0.430
  WS02004405           JUNCTION      0.04   939.66     0  03:01     0.00107        8.31       0.270
  WS02006109           JUNCTION      1.23   914.22     0  03:03      0.0347        8.44       0.254
  WS02006110           JUNCTION      0.00   914.36     0  03:03           0        8.42       0.258
  WS02006111           JUNCTION      0.00   914.76     0  03:03           0        8.38       0.055
  WS02006112           JUNCTION     30.67   937.60     0  03:03      0.0853        8.46       0.357
  WS02006113           JUNCTION      0.00   914.25     0  03:03           0        8.39       0.152
  WS02006115           JUNCTION      0.00   937.67     0  03:03           0        8.43       0.289
  WS02006116           JUNCTION      0.00   938.58     0  03:02           0        8.41       0.277
  WS02006230           JUNCTION     10.28   534.55     0  06:53        0.29        6.02       0.274
  WS02006231           JUNCTION      0.00   524.17     0  06:53           0        5.74       0.207
  WS02006232           JUNCTION      0.00   524.32     0  06:53           0        5.76       0.327
  WS02006234           JUNCTION      0.00   524.78     0  06:53           0        5.77       0.144
  WS02006235           JUNCTION      0.00   524.70     0  06:53           0        5.89       0.244
  WS02006238           JUNCTION      0.00   418.90     0  07:40           0        2.76       0.270
  WS02006240           JUNCTION      0.00   417.17     0  07:40           0        2.69       0.623
  WS02006242           JUNCTION      0.00   416.81     0  07:40           0        2.66       0.739
  WS02006243           JUNCTION      0.00   416.67     0  07:40           0        2.65       0.578
  WS02006245           JUNCTION      0.00   416.52     0  07:40           0        2.65       0.553
  WS02006247           JUNCTION      0.00   416.82     0  07:40           0        2.66       0.465
  WS02006248           JUNCTION      0.00   417.21     0  07:40           0        2.66       0.314
  WS02006249           JUNCTION      0.00   423.64     0  06:53           0        2.97       0.578
  WS02006239           JUNCTION      0.00   417.94     0  07:40           0        2.72       0.437
  WS02006251           JUNCTION      0.08   412.17     0  07:40     0.00217        3.02       0.561
  WS02006252           JUNCTION      0.00   400.00     0  06:50           0        2.52       0.023
  WS02006253           JUNCTION      3.75   143.71     0  03:01      0.0103       0.515       2.471
  WS02006256           JUNCTION      0.00   983.00     0  00:00           0        9.72      -0.012
  WS02004138           JUNCTION      0.00   380.00     0  00:00           0        9.98       0.065
  WS02004139           JUNCTION      0.32   396.51     0  00:00     0.00905        9.98       0.462
  WS02004407           JUNCTION      0.00   939.81     0  03:01           0        8.25       0.111
  WS02006228           JUNCTION      0.00   912.99     0  03:03           0        8.42       0.202
  WS02006229           JUNCTION      0.00   930.47     0  02:59           0        8.43       0.180
  WS02006280           JUNCTION      0.00   680.18     0  03:02           0        2.43       0.014
  WS02006284           JUNCTION      0.10   679.04     0  03:02      0.0027        2.43       0.046
  WS02006287           JUNCTION      0.00   677.67     0  03:02           0        2.43       0.031
  WSF200               JUNCTION      0.00   937.66     0  03:04           0         8.1       0.067
  HS02004901           JUNCTION     37.63    37.63     0  03:01       0.103       0.103       1.740
  HS02004881           JUNCTION     14.26   140.54     0  03:01      0.0422       0.463       0.106
  HS02004876           JUNCTION     25.66   127.63     0  03:01      0.0814       0.422       0.131
  HS02004870           JUNCTION     26.26   103.57     0  03:01      0.0799        0.34       0.035
  HS02004862           JUNCTION     25.49    79.37     0  03:01      0.0888       0.261       0.068
  HS02004856           JUNCTION     19.64    55.40     0  03:01      0.0601       0.173       0.840
  HS02004852           JUNCTION      0.00    37.84     0  03:01           0       0.113       0.053
  HS02004848           JUNCTION     55.75    55.75     0  03:01       0.197       0.197       0.028
  HS02004842           JUNCTION      0.00    16.84     0  03:01           0       0.097      15.490
  HS02004837           JUNCTION     50.35    65.69     0  03:01       0.318       0.402       0.204
  HS02004830           JUNCTION      0.15    64.78     0  03:01     0.00423       0.392       0.316
  HS02004824           JUNCTION     65.57   128.44     0  03:01       0.251       0.642       0.086
  HS02004817           JUNCTION      0.60   124.48     0  03:01      0.0169       0.658       2.599
  HS02004807           JUNCTION     48.45   165.83     0  03:01       0.147       0.788       0.554
  HS02004802           JUNCTION      0.00   165.32     0  03:04           0       0.785       0.508
  HS02004799           JUNCTION     38.67   446.02     0  03:01       0.119        1.42       0.191
  HS02004792           JUNCTION    184.82   411.85     0  03:01        0.54         1.3       0.033
  HS02004788           JUNCTION     58.68   233.43     0  03:02       0.219       0.758       0.053
  HS02004785           JUNCTION      0.15   182.19     0  03:01     0.00423        0.54       0.093
  HS02004777           JUNCTION      0.03   184.99     0  03:01    0.000846       0.541       0.972
  HS02004770           JUNCTION    154.22   188.93     0  03:01       0.441       0.542       0.577
  HS02004480           JUNCTION      0.00   517.19     0  03:01           0        1.66       0.069
  HS02004479           JUNCTION      0.00    75.45     0  03:02           0       0.258       0.286
  HS02004478           JUNCTION      0.00   677.10     0  03:02           0        2.43       0.011
  YS02001745           JUNCTION    438.14   438.14     0  03:01        3.01        3.02       0.300
  YS02001748           JUNCTION      0.04   569.74     0  02:32     0.00127        3.01       0.702
  YS02001751           JUNCTION      0.01   443.28     0  03:01     0.00031        2.98       0.803
  YS02001754           JUNCTION      0.26   443.06     0  03:01     0.00733        2.97       0.837
  YS02001762           JUNCTION      0.00   316.53     0  02:43           0         1.9       1.129
  YS02001765           JUNCTION      0.00   316.00     0  02:42           0         1.9       1.287
  YS02001767           JUNCTION      0.54   316.40     0  02:42      0.0151        1.93       1.890
  YS02001770           JUNCTION    552.50   674.40     0  03:04        3.37        4.03       0.798
  YS02001774           JUNCTION      0.00   675.06     0  03:04           0        2.75       0.905
  YS02001779           JUNCTION      0.01   674.78     0  03:01    0.000141        2.72       0.573
  YS02001882           JUNCTION      0.00    13.64     0  02:43           0      0.0152      17.446
  YS02001884           JUNCTION      0.00    26.83     0  02:43           0      0.0524      13.177
  YS02001759           JUNCTION    536.49   622.03     0  02:43        3.11        4.31       0.527
  YS02001887           JUNCTION    679.97   680.94     0  03:01        3.57         3.6       0.238
  YS02001890           JUNCTION      0.00   680.69     0  03:01           0        3.55       0.260
  YS02001898           JUNCTION      0.00   518.33     0  03:01           0        3.45       0.088
  YS02001901           JUNCTION      0.00   518.77     0  03:01           0        3.45       0.205
  YS02001904           JUNCTION      0.00   518.62     0  03:01           0        3.44       0.180
  YS02001907           JUNCTION      0.00  1110.83     0  03:01           0        7.77       0.307
  YS02001910           JUNCTION      0.00   593.04     0  03:01           0        4.34       0.274
  YS02001915           JUNCTION    389.26   592.28     0  03:02        2.52        4.38       0.138
  YS02001918           JUNCTION      0.00   274.26     0  02:49           0        1.88       0.100
  YS02001619           JUNCTION    380.66   380.66     0  03:01        2.51        2.51       0.487
  YS02001629           JUNCTION      0.00   196.11     0  02:39           0        1.59       1.845
  YS02001641           JUNCTION      0.00   413.50     0  02:38           0        4.45       0.476
  YS02001644           JUNCTION    416.76  1526.80     0  03:01         2.9        12.1       0.218
  YS02001652           JUNCTION      0.00   499.11     0  03:01           0        2.63       0.900
  YS02001655           JUNCTION      0.15   499.15     0  03:01     0.00434        2.65       0.907
  YS02001920           JUNCTION      2.87   274.21     0  02:49      0.0809        1.87       0.162
  YS02001923           JUNCTION      0.04   286.20     0  02:49     0.00106        1.78       0.040
  YS02001926           JUNCTION      0.05   286.48     0  02:47     0.00147        1.76       0.186
  YS02001929           JUNCTION    189.18   204.92     0  02:47        1.75        1.75       0.036
  YS02001658           JUNCTION      0.00   629.77     0  02:29           0        2.68       0.754
  YS02001661           JUNCTION      0.00   674.53     0  02:42           0        2.79       0.066
  YS02001664           JUNCTION    492.63   492.63     0  03:01        2.67        2.78       0.115
  YS02001622           JUNCTION      0.00   380.93     0  03:01           0         2.5       1.288
  YS02001633           JUNCTION    423.29   423.29     0  03:01        2.99        4.52       0.711
  YS02001649           JUNCTION      0.00   871.94     0  02:39           0        7.07       0.531
  YS02001757           JUNCTION      0.00  1677.56     0  02:41           0        8.98       1.027
  YS02001895           JUNCTION      0.00   518.34     0  03:01           0        3.45       0.150
  YS02001625           JUNCTION      0.00   409.69     0  03:01           0        2.48       1.589
  YS02163301           JUNCTION      0.00   203.46     0  02:32           0        1.57       1.572
  YS02163601           JUNCTION      0.11   412.57     0  02:39      0.0031        4.48       0.677
  YS02164001           JUNCTION      0.00   412.63     0  02:39           0        4.46       0.451
  YS02001647           JUNCTION      0.00   729.35     0  03:10           0        6.33       0.445
  YSB1154              JUNCTION     44.76    44.76     0  03:01       0.144       0.144       1.017
  YSB6556              JUNCTION      0.00    43.26     0  03:01           0       0.145       0.869
  YSB1174              JUNCTION     38.10    38.10     0  03:01       0.106       0.107       1.222
  YSB1171              JUNCTION      0.00    76.93     0  03:01           0       0.257       2.525
  YS02006553           JUNCTION      0.00   709.33     0  03:46           0         6.7       0.232
  YS02006561           JUNCTION      0.00   981.06     0  03:24           0        9.93       0.007
  YS02006556           JUNCTION      0.00   709.48     0  03:46           0         6.7       0.162
  YS02006558           JUNCTION    587.14   981.46     0  03:24        3.28        9.96       0.052
  YS02001783           JUNCTION      0.00   981.18     0  03:25           0        9.93       0.024
  YS02001784           JUNCTION      1.06   982.11     0  03:25      0.0299        9.95       0.037
  YS02001786           JUNCTION      0.06   982.23     0  03:25     0.00159        9.95       0.034
  YS02001788           JUNCTION      0.07   982.21     0  03:25       0.002        9.95       0.019
  YS02001790           JUNCTION      0.15   982.26     0  03:24     0.00437        9.95       0.014
  YS02001791           JUNCTION      0.00   982.38     0  03:24           0        9.95       0.006
  YS02001793           JUNCTION      0.00   982.56     0  03:25           0        9.95      -0.025
  WSC                  OUTFALL       0.00  1318.81     0  03:07           0        18.4       0.000
  JK-storage           STORAGE       0.00  1005.52     0  02:41           0        10.1      -9.123
  CC-storage           STORAGE       0.00  1677.48     0  02:41           0        5.95       1.008
  XR-storage           STORAGE    1024.87  1024.87     0  03:01        12.7        13.3      -0.001
  
  
  **********************
  Node Surcharge Summary
  **********************
  
  Surcharging occurs when water rises above the top of the highest conduit.
  ---------------------------------------------------------------------
                                               Max. Height   Min. Depth
                                   Hours       Above Crown    Below Rim
  Node                 Type      Surcharged         Meters       Meters
  ---------------------------------------------------------------------
  WS02004401           JUNCTION        0.40          0.259        1.401
  WS02004402           JUNCTION        0.43          0.245        1.495
  WS02004403           JUNCTION        0.44          0.223        1.807
  WS02004404           JUNCTION        0.67          0.266        2.514
  WS02004406           JUNCTION        0.51          0.177        2.273
  WS02004413           JUNCTION        0.15          0.023        2.177
  WS02004405           JUNCTION        0.59          0.238        2.562
  WS02006109           JUNCTION        3.03          0.835        0.985
  WS02006110           JUNCTION        1.89          0.539        1.311
  WS02006111           JUNCTION        0.11          0.129        1.741
  WS02006112           JUNCTION        2.23          0.585        1.095
  WS02006113           JUNCTION        0.13          0.174        1.756
  WS02006115           JUNCTION        0.30          0.236        2.014
  WS02006116           JUNCTION        0.32          0.231        2.059
  WS02006230           JUNCTION        1.23          0.791        0.779
  WS02006231           JUNCTION        1.63          0.804        0.726
  WS02006232           JUNCTION        2.79          0.922        0.558
  WS02006234           JUNCTION        2.18          0.810        0.430
  WS02006235           JUNCTION        2.42          0.833        0.457
  WS02006238           JUNCTION        2.47          0.839        0.591
  WS02006240           JUNCTION        1.94          0.696        0.694
  WS02006242           JUNCTION        1.97          0.701        0.119
  WS02006243           JUNCTION        1.78          0.568        0.202
  WS02006245           JUNCTION        1.71          0.504        0.346
  WS02006247           JUNCTION        1.70          0.636        0.124
  WS02006248           JUNCTION        1.53          0.380        0.000
  WS02006249           JUNCTION        1.56          0.390        0.000
  WS02006239           JUNCTION        2.06          0.755        0.535
  WS02006251           JUNCTION        0.91          0.470        0.710
  WS02006252           JUNCTION        1.62          0.568        0.532
  WS02006253           JUNCTION        0.94          0.516        1.964
  WS02006256           JUNCTION        6.67          2.050        0.000
  WS02006228           JUNCTION        3.02          0.994        1.206
  YS02001748           JUNCTION        5.21          0.607        0.583
  YS02001751           JUNCTION        5.38          0.576        0.624
  YS02001754           JUNCTION        5.58          0.791        0.359
  YS02001762           JUNCTION        5.75          1.049        0.101
  YS02001765           JUNCTION        5.72          0.997        0.103
  YS02001767           JUNCTION        5.70          0.952        0.078
  YS02001770           JUNCTION        5.68          0.906        0.014
  YS02001774           JUNCTION        5.74          0.992        0.058
  YS02001779           JUNCTION        5.56          0.680        0.000
  YS02001882           JUNCTION        1.06          0.646        0.184
  YS02001884           JUNCTION        1.09          0.679        0.191
  YS02001759           JUNCTION        5.78          1.085        0.125
  YS02001887           JUNCTION        1.17          0.762        0.188
  YS02001890           JUNCTION        1.20          0.760        0.000
  YS02001898           JUNCTION        1.03          0.542        0.198
  YS02001901           JUNCTION        1.13          0.680        0.190
  YS02001904           JUNCTION        1.10          0.638        0.212
  YS02001907           JUNCTION        1.90          0.950        0.000
  YS02001910           JUNCTION        1.24          0.795        0.305
  YS02001915           JUNCTION        1.06          0.628        0.372
  YS02001918           JUNCTION        0.90          0.336        0.474
  YS02001619           JUNCTION        5.37          0.501        0.109
  YS02001629           JUNCTION        5.38          0.466        0.004
  YS02001641           JUNCTION        5.73          0.936        0.164
  YS02001644           JUNCTION        5.73          0.920        0.000
  YS02001652           JUNCTION        5.61          1.090        0.040
  YS02001655           JUNCTION        5.39          1.144        0.056
  YS02001920           JUNCTION        0.93          0.428        0.712
  YS02001926           JUNCTION        0.01          0.191        0.709
  YS02001658           JUNCTION        5.25          1.138        0.162
  YS02001661           JUNCTION        0.08          1.064        0.326
  YS02001622           JUNCTION        5.41          0.514        0.106
  YS02001633           JUNCTION        5.71          0.926        0.134
  YS02001649           JUNCTION        5.76          1.050        0.000
  YS02001757           JUNCTION        5.86          1.177        0.033
  YS02001895           JUNCTION        1.04          0.570        0.180
  YS02001625           JUNCTION        5.64          0.780        0.000
  YS02163301           JUNCTION        5.69          0.882        0.148
  YS02163601           JUNCTION        5.75          0.990        0.090
  YS02164001           JUNCTION        5.72          0.923        0.177
  YS02001647           JUNCTION        5.62          0.800        0.100
  YS02006553           JUNCTION        2.00          0.971        0.219
  YS02006561           JUNCTION        0.94          0.301        0.849
  YS02006556           JUNCTION        1.47          0.894        0.456
  YS02006558           JUNCTION        1.43          0.881        0.519
  YS02001783           JUNCTION        1.19          0.689        0.911
  YS02001784           JUNCTION        1.14          0.868        0.622
  YS02001786           JUNCTION        1.07          1.037        0.393
  YS02001788           JUNCTION        1.02          0.968        0.512
  YS02001790           JUNCTION        2.02          1.157        0.000
  YS02001791           JUNCTION        2.18          1.920        0.000
  YS02001793           JUNCTION        2.51          1.247        1.353
  
  
  *********************
  Node Flooding Summary
  *********************
  
  Flooding refers to all water that overflows a node, whether it ponds or not.
  --------------------------------------------------------------------------
                                                             Total   Maximum
                                 Maximum   Time of Max       Flood    Ponded
                        Hours       Rate    Occurrence      Volume     Depth
  Node                 Flooded       LPS   days hr:min    10^6 ltr    Meters
  --------------------------------------------------------------------------
  WS02006248              0.08     15.68      0  03:03       0.003     0.000
  WS02006249              0.86    255.68      0  03:03       0.284     0.000
  WS02006256              3.79    978.40      0  00:00       6.495     0.000
  YS02001779              3.22    674.68      0  03:01       2.704     0.000
  YS02001890              0.35    163.34      0  03:01       0.085     0.000
  YS02001907              0.78    720.13      0  03:01       1.058     0.000
  YS02001644              4.20   1526.44      0  03:01      10.488     0.000
  YS02001649              0.01     37.85      0  02:43       0.001     0.000
  YS02001625              1.39    409.61      0  03:01       0.855     0.000
  YS02001790              0.01    153.04      0  02:42       0.000     0.000
  YS02001791              0.01    190.79      0  02:42       0.000     0.000
  JK-storage              1.00    966.44      0  02:49       1.336     0.000
  XR-storage              3.43    644.86      0  03:01       2.558     0.000
  
  
  **********************
  Storage Volume Summary
  **********************
  
  --------------------------------------------------------------------------------------------------
                         Average     Avg  Evap Exfil       Maximum     Max    Time of Max    Maximum
                          Volume    Pcnt  Pcnt  Pcnt        Volume    Pcnt     Occurrence    Outflow
  Storage Unit           1000 m3    Full  Loss  Loss       1000 m3    Full    days hr:min        LPS
  --------------------------------------------------------------------------------------------------
  JK-storage               0.153      52     0     0         0.291     100       0  02:43     983.00
  CC-storage               3.059      19     0     0         3.966      25       0  03:13     400.00
  XR-storage               0.759      82     0     0         0.926     100       0  03:00     380.00
  
  
  ***********************
  Outfall Loading Summary
  ***********************
  
  ---------------------------------------------------------------------------------------------------------------------------------
                         Flow       Avg       Max       Total         Total         Total         Total         Total         Total
                         Freq      Flow      Flow      Volume           COD            SS            TN            TP         NH4-N
  Outfall Node           Pcnt       LPS       LPS    10^6 ltr            kg            kg            kg            kg            kg
  ---------------------------------------------------------------------------------------------------------------------------------
  WSC                   99.98    747.05   1318.81      18.441      2273.625      3923.771       146.969        17.336        89.020
  ---------------------------------------------------------------------------------------------------------------------------------
  System                99.98    747.05   1318.81      18.441      2273.625      3923.771       146.969        17.336        89.020
  
  
  ********************
  Link Flow Summary
  ********************
  
  -----------------------------------------------------------------------------
                                 Maximum  Time of Max   Maximum    Max/    Max/
                                  |Flow|   Occurrence   |Veloc|    Full    Full
  Link                 Type          LPS  days hr:min     m/sec    Flow   Depth
  -----------------------------------------------------------------------------
  WS02003066WSF200     CONDUIT    937.66     0  03:04      3.00    0.16    0.32
  WS02006287WS02006284 CONDUIT    678.94     0  03:02      2.38    0.31    0.39
  WS02006284WS02006280 CONDUIT    680.18     0  03:02      2.62    0.28    0.37
  WS02006280WS02006229 CONDUIT    680.36     0  03:02      3.98    0.15    0.50
  WS02006229WS02006228 CONDUIT    912.99     0  03:03      1.82    3.02    1.00
  WS02006256WS02006235 CONDUIT    288.60     0  00:00      4.23    3.05    1.00
  WS02006253WS02006251 CONDUIT    147.65     0  02:57      0.65    0.44    1.00
  WS02006252WS02006251 CONDUIT    403.70     0  06:53      3.21    1.48    1.00
  WS02006251WS02006249 CONDUIT    423.64     0  06:53      1.11    1.22    1.00
  WS02006249WS02006248 CONDUIT    417.21     0  07:40      1.14    2.29    1.00
  WS02006248WS02006247 CONDUIT    416.82     0  07:40      1.08    0.91    1.00
  WS02006247WS02006245 CONDUIT    416.52     0  07:40      1.08    3.30    1.00
  WS02006245WS02006243 CONDUIT    416.67     0  07:40      1.08    1.23    1.00
  WS02006243WS02006242 CONDUIT    416.81     0  07:40      1.08    0.89    1.00
  WS02006242WS02006240 CONDUIT    417.17     0  07:40      1.08    1.66    1.00
  WS02006240WS02006239 CONDUIT    417.94     0  07:40      1.09    1.32    1.00
  WS02006239WS02006238 CONDUIT    418.90     0  07:40      1.09    1.34    1.00
  WS02006238WS02006235 CONDUIT    420.77     0  07:40      1.46    0.94    1.00
  WS02006235WS02006234 CONDUIT    524.78     0  06:53      1.36    5.54    1.00
  WS02006234WS02006232 CONDUIT    524.32     0  06:53      1.39    1.06    1.00
  WS02006232WS02006231 CONDUIT    524.17     0  06:53      1.36    1.10    1.00
  WS02006231WS02006230 CONDUIT    524.27     0  06:53      1.38    7.95    1.00
  WS02006230WS02006229 CONDUIT    537.75     0  06:53      1.40   11.97    1.00
  WS02006228WS02006109 CONDUIT    912.99     0  03:03      1.82    3.99    1.00
  WS02006116WS02004401 CONDUIT    938.33     0  03:02      1.19    1.29    1.00
  WS02006115WS02006116 CONDUIT    938.58     0  03:02      1.20    1.20    1.00
  WS02006113WS02006111 CONDUIT    914.76     0  03:03      2.61    1.10    1.00
  WS02006112WS02006115 CONDUIT    937.67     0  03:03      1.19    0.55    1.00
  WS02006111WS02006112 CONDUIT    914.93     0  03:03      1.82    0.44    1.00
  WS02006110WS02006113 CONDUIT    914.25     0  03:03      1.85    0.83    1.00
  WS02006109WS02006110 CONDUIT    914.36     0  03:03      1.82    1.76    1.00
  WS02004411WS02004412 CONDUIT    936.97     0  03:03      1.24    1.33    0.92
  WS02004401WS02004402 CONDUIT    938.86     0  03:03      1.20    1.13    1.00
  WS02004413WS02003067 CONDUIT    937.21     0  03:04      1.55    0.40    0.72
  WS02004412WS02004413 CONDUIT    937.14     0  03:04      1.22    0.63    0.95
  WS02004410WS02004411 CONDUIT    936.61     0  03:03      1.23    1.28    0.94
  WS02004409WS02004410 CONDUIT    937.61     0  03:03      1.22    1.21    0.95
  WS02004407WS02004409 CONDUIT    938.55     0  03:01      1.72    0.33    0.68
  WS02004406WS02004407 CONDUIT    939.81     0  03:01      1.60    0.42    0.70
  WS02004405WS02004406 CONDUIT    939.94     0  03:01      1.20    1.85    1.00
  WS02004404WS02004405 CONDUIT    939.62     0  03:01      1.20    9.21    1.00
  WS02004403WS02004404 CONDUIT    939.41     0  03:01      1.20    0.68    1.00
  WS02004402WS02004403 CONDUIT    938.69     0  03:01      1.20    1.35    1.00
  WS02004139WS02001211 CONDUIT    382.93     0  03:16      0.90    0.48    0.64
  WS02004138WS02004139 CONDUIT    396.19     0  00:00      3.65    0.08    0.46
  WS02003067WS02003066 CONDUIT    937.51     0  03:04      1.65    0.30    0.50
  WS02001213WS02003059 CONDUIT    398.55     0  03:15      0.88    0.66    0.87
  WS02001212WS02001213 CONDUIT    395.68     0  03:16      1.32    0.61    0.55
  WS02001211WS02001212 CONDUIT    393.18     0  03:16      0.78    0.30    0.71
  WS02003072WS02003073 CONDUIT   1316.54     0  03:07      1.95    2.84    0.58
  WS02003069WS02003072 CONDUIT   1316.19     0  03:06      1.81    0.63    0.61
  WS02003060WS02003069 CONDUIT   1316.13     0  03:06      2.02    0.52    0.56
  WS02003059WS02003060 CONDUIT    402.05     0  03:15      0.95    0.26    0.77
  HS02004901HS02004770 CONDUIT     37.21     0  03:01      0.10    0.14    0.53
  HS02004876HS02004881 CONDUIT    127.63     0  03:01      1.21    1.36    0.15
  HS02004870HS02004876 CONDUIT    103.09     0  03:01      0.82    0.07    0.18
  HS02004842HS02004848 CONDUIT     16.84     0  03:01      0.07    0.01    0.33
  HS02004837HS02004842 CONDUIT     17.90     0  03:03      0.42    0.01    0.35
  HS02004830HS02004837 CONDUIT     64.63     0  03:01      0.67    0.06    0.14
  HS02004824HS02004830 CONDUIT     64.12     0  03:02      0.62    0.08    0.16
  HS02004817HS02004824 CONDUIT    123.88     0  03:01      0.31    0.06    0.58
  HS02004770HS02004777 CONDUIT    184.96     0  03:01      0.49    0.34    0.54
  HS02004799HS02004480 CONDUIT    444.36     0  03:01      1.07    0.56    0.60
  HS02004792HS02004799 CONDUIT    408.40     0  03:01      1.20    0.25    0.49
  HS02004788HS02004792 CONDUIT    232.95     0  03:02      1.28    0.15    0.26
  HS02004785HS02004788 CONDUIT    181.76     0  03:02      0.91    1.37    0.29
  HS02004777HS02004785 CONDUIT    182.04     0  03:01      0.57    0.22    0.45
  HS02004480HS02004478 CONDUIT    517.34     0  03:01      1.55    2.18    0.48
  HS02004479HS02004480 CONDUIT     77.31     0  03:02      0.30    0.07    0.57
  HS02004862HS02004870 CONDUIT     79.03     0  03:01      0.80    0.09    0.14
  HS02004848HS02004852 CONDUIT     37.84     0  03:01      0.53    0.04    0.10
  HS02004856HS02004862 CONDUIT     54.77     0  03:01      0.59    0.05    0.13
  HS02004852HS02004856 CONDUIT     37.76     0  03:02      0.34    0.04    0.16
  HS02004802HS02004478 CONDUIT    170.18     0  03:04      0.54    0.15    0.48
  HS02004478WS02006287 CONDUIT    677.67     0  03:02      2.11    0.19    0.36
  HS02004817HS02004807 CONDUIT    128.12     0  03:04      0.25    0.08    0.75
  HS02004807HS02004802 CONDUIT    165.32     0  03:04      0.46    0.32    0.53
  YS02001759YS02001757 CONDUIT    622.09     0  02:43      0.79    0.44    1.00
  YS02001762YS02001759 CONDUIT    315.57     0  02:43      0.40    0.36    1.00
  YS02001765YS02001762 CONDUIT    316.53     0  02:43      0.40    0.30    1.00
  YS02001770YS02001767 CONDUIT    315.87     0  02:42      0.40    1.25    1.00
  YS02001774YS02001770 CONDUIT    675.06     0  03:04      0.86    0.43    1.00
  YS02001779YS02001774 CONDUIT    674.77     0  03:01      0.86    0.34    1.00
  YS02001649YS02001757 CONDUIT    872.51     0  02:40      1.11    0.53    1.00
  YS02001767YS02001765 CONDUIT    316.00     0  02:42      0.40    0.40    1.00
  YS02006561YS02001783 CONDUIT    981.18     0  03:25      2.18    0.51    1.00
  YS02001783YS02001784 CONDUIT    981.05     0  03:25      1.95    1.35    1.00
  YS02001784YS02001785 CONDUIT    982.18     0  03:25      1.95    2.29    1.00
  YS02001788YS02001790 CONDUIT    982.11     0  03:24      2.44    0.72    1.00
  YS02001790YS02001791 CONDUIT    982.38     0  03:24      3.01    1.07    1.00
  YS02001791YS02001793 CONDUIT    982.56     0  03:25      6.00    0.42    1.00
  YS02001910YS02001907 CONDUIT    593.44     0  03:01      0.76    0.33    1.00
  YS02001786YS02001788 CONDUIT    982.14     0  03:25      2.32    1.89    1.00
  YS02001915YS02001910 CONDUIT    593.04     0  03:01      0.76    0.29    1.00
  YS02001918YS02001915 CONDUIT    274.80     0  02:49      0.44    0.15    1.00
  YS02001923YS02001920 CONDUIT    271.34     0  02:49      0.76    0.12    1.00
  YS02001926YS02001923 CONDUIT    286.16     0  02:49      0.86    0.41    0.96
  YS02001929YS02001926 CONDUIT    270.36     0  02:49      0.92    0.13    0.85
  YS02001920YS02001918 CONDUIT    274.26     0  02:49      0.72    0.27    1.00
  YS02001629YS02163301 CONDUIT    203.46     0  02:32      0.26    0.25    1.00
  YS02001619YS02001622 CONDUIT    380.93     0  03:01      0.59    0.56    1.00
  YS02001622YS02001625 CONDUIT    381.17     0  03:01      0.49    0.20    1.00
  YS02001625YS02001629 CONDUIT    196.11     0  02:39      0.25    0.09    1.00
  YS02163301YS02001633 CONDUIT    205.72     0  02:34      0.26    0.19    1.00
  YS02163601YS02164001 CONDUIT    412.63     0  02:39      0.53    0.37    1.00
  YS02164001YS02001641 CONDUIT    413.50     0  02:38      0.53    0.56    1.00
  YS02001641YS02001644 CONDUIT    412.53     0  02:38      0.53    1.33    1.00
  YS02001647YS02001649 CONDUIT    729.35     0  03:10      0.93    0.39    1.00
  YS02006553YS02006556 CONDUIT    709.48     0  03:46      0.90    0.61    1.00
  YS02006556YS02006558 CONDUIT    709.75     0  03:46      0.90    0.56    1.00
  YSB6556YSB1171       CONDUIT     42.83     0  03:02      0.13    0.04    0.82
  YS02001907YS02006553 CONDUIT    709.33     0  03:46      0.79    0.83    1.00
  YS02006558YS02006561 CONDUIT    981.06     0  03:24      3.53    2.17    1.00
  YS02001633YS02163601 CONDUIT    412.46     0  02:39      0.53    0.43    1.00
  YS02001644YS02001647 CONDUIT    729.43     0  03:10      0.93    0.43    1.00
  YS02001745YS02001748 CONDUIT    569.69     0  02:32      1.46    0.22    0.98
  YS02001748YS02001751 CONDUIT    443.27     0  03:01      1.03    0.22    1.00
  YS02001751YS02001754 CONDUIT    442.80     0  03:01      0.88    0.21    1.00
  YS02001754YS02001757 CONDUIT    442.95     0  03:01      0.56    0.18    1.00
  YS02001882YS02001884 CONDUIT     13.93     0  04:13      0.12    0.02    1.00
  YS02001884YS02001887 CONDUIT     26.83     0  02:43      0.08    0.04    1.00
  YS02001890YS02001895 CONDUIT    518.34     0  03:01      0.66    0.24    1.00
  YS02001895YS02001898 CONDUIT    518.33     0  03:01      0.66    0.90    1.00
  YS02001898YS02001901 CONDUIT    518.77     0  03:01      0.66    0.33    1.00
  YS02001901YS02001904 CONDUIT    518.62     0  03:01      0.66    0.80    1.00
  YS02001904YS02001907 CONDUIT    518.70     0  03:01      0.66    0.18    1.00
  YS02001887YS02001890 CONDUIT    680.69     0  03:01      0.87    1.16    1.00
  YS02001652YS02001649 CONDUIT    499.61     0  03:01      0.64    0.25    1.00
  YS02001655YS02001652 CONDUIT    499.11     0  03:01      0.94    0.24    1.00
  YS02001658YS02001655 CONDUIT    498.99     0  03:01      1.18    0.21    1.00
  YS02001661YS02001658 CONDUIT    629.77     0  02:29      1.52    0.25    1.00
  YS02001664YS02001661 CONDUIT    674.53     0  02:42      1.43    0.21    0.77
  YSB1154YSB6556       CONDUIT     43.26     0  03:01      0.18    0.08    0.73
  YSB1174YSB1171       CONDUIT     36.63     0  03:01      0.11    0.06    0.85
  YSB1171HS02004479    CONDUIT     75.45     0  03:02      0.54    0.05    0.68
  HS02004881HS02006253 CONDUIT    140.48     0  03:01      2.42    0.03    0.54
  YS02001793JiankangQianchi CONDUIT   1005.52     0  02:41     16.50    0.08    1.00
  YS02001757CaochengTiaoxuchi CONDUIT   1677.48     0  02:41      2.17    0.74    1.00
  WSF200WS02003060     CONDUIT    938.11     0  03:04      1.95    0.21    0.44
  1                    CONDUIT   1318.81     0  03:07      3.58    0.46    0.48
  CC-Pump-1            PUMP       200.00     0  03:00              1.00
  CC-Pump-2            PUMP       200.00     0  06:50              1.00
  JK-Pump-1            PUMP       300.00     0  00:00              1.00
  JK-Pump-2            PUMP       683.00     0  00:00              1.00
  XR-Pump-1            PUMP        95.00     0  00:00              1.00
  XR-Pump-2            PUMP        95.00     0  00:00              1.00
  XR-Pump-3            PUMP        95.00     0  00:00              1.00
  XR-Pump-4            PUMP        95.00     0  00:00              1.00
  
  
  ***************************
  Flow Classification Summary
  ***************************
  
  -------------------------------------------------------------------------------------
                      Adjusted    ---------- Fraction of Time in Flow Class ---------- 
                       /Actual         Up    Down  Sub   Sup   Up    Down  Norm  Inlet 
  Conduit               Length    Dry  Dry   Dry   Crit  Crit  Crit  Crit  Ltd   Ctrl  
  -------------------------------------------------------------------------------------
  WS02003066WSF200        1.00   0.02  0.07  0.00  0.00  0.91  0.00  0.00  0.47  0.00
  WS02006287WS02006284    1.00   0.04  0.02  0.00  0.51  0.44  0.00  0.00  0.65  0.00
  WS02006284WS02006280    1.00   0.05  0.00  0.00  0.00  0.00  0.00  0.95  0.00  0.00
  WS02006280WS02006229    1.00   0.05  0.00  0.00  0.01  0.02  0.00  0.92  0.01  0.00
  WS02006229WS02006228    1.00   0.00  0.00  0.00  0.99  0.00  0.00  0.01  0.00  0.00
  WS02006256WS02006235    1.00   0.00  0.00  0.00  1.00  0.00  0.00  0.00  0.00  0.00
  WS02006253WS02006251    1.00   0.02  0.02  0.00  0.95  0.00  0.01  0.00  0.00  0.00
  WS02006252WS02006251    1.00   0.23  0.11  0.00  0.12  0.01  0.53  0.00  0.00  0.00
  WS02006251WS02006249    1.00   0.00  0.00  0.00  1.00  0.00  0.00  0.00  0.44  0.00
  WS02006249WS02006248    1.00   0.00  0.01  0.00  0.79  0.00  0.20  0.00  0.00  0.00
  WS02006248WS02006247    1.00   0.01  0.00  0.00  0.97  0.00  0.00  0.02  0.27  0.00
  WS02006247WS02006245    1.00   0.01  0.00  0.00  0.94  0.00  0.00  0.05  0.00  0.00
  WS02006245WS02006243    1.00   0.00  0.00  0.00  0.90  0.00  0.00  0.10  0.02  0.00
  WS02006243WS02006242    1.00   0.00  0.00  0.00  1.00  0.00  0.00  0.00  0.35  0.00
  WS02006242WS02006240    1.00   0.00  0.00  0.00  0.99  0.00  0.01  0.00  0.00  0.00
  WS02006240WS02006239    1.00   0.00  0.00  0.00  0.90  0.00  0.00  0.10  0.03  0.00
  WS02006239WS02006238    1.00   0.00  0.00  0.00  1.00  0.00  0.00  0.00  0.15  0.00
  WS02006238WS02006235    1.00   0.00  0.00  0.00  1.00  0.00  0.00  0.00  0.00  0.00
  WS02006235WS02006234    1.00   0.00  0.00  0.00  0.93  0.00  0.07  0.00  0.00  0.00
  WS02006234WS02006232    1.00   0.00  0.00  0.00  1.00  0.00  0.00  0.00  0.11  0.00
  WS02006232WS02006231    1.00   0.00  0.00  0.00  1.00  0.00  0.00  0.00  0.00  0.00
  WS02006231WS02006230    1.00   0.00  0.00  0.00  0.63  0.00  0.36  0.00  0.00  0.00
  WS02006230WS02006229    1.00   0.00  0.00  0.00  0.99  0.00  0.00  0.01  0.01  0.00
  WS02006228WS02006109    1.00   0.00  0.00  0.00  1.00  0.00  0.00  0.00  0.00  0.00
  WS02006116WS02004401    1.00   0.01  0.00  0.00  0.99  0.00  0.00  0.00  0.01  0.00
  WS02006115WS02006116    1.00   0.01  0.00  0.00  0.96  0.00  0.00  0.02  0.01  0.00
  WS02006113WS02006111    1.00   0.01  0.00  0.00  0.04  0.95  0.00  0.00  0.20  0.00
  WS02006112WS02006115    1.00   0.01  0.00  0.00  0.98  0.00  0.00  0.00  0.00  0.00
  WS02006111WS02006112    1.00   0.01  0.00  0.00  0.99  0.00  0.00  0.00  0.91  0.00
  WS02006110WS02006113    1.00   0.00  0.00  0.00  0.99  0.00  0.00  0.00  0.00  0.00
  WS02006109WS02006110    1.00   0.00  0.00  0.00  0.99  0.00  0.00  0.00  0.00  0.00
  WS02004411WS02004412    1.00   0.07  0.00  0.00  0.93  0.00  0.00  0.00  0.00  0.00
  WS02004401WS02004402    1.00   0.01  0.00  0.00  0.99  0.00  0.00  0.00  0.01  0.00
  WS02004413WS02003067    1.00   0.07  0.01  0.00  0.00  0.00  0.91  0.00  0.00  0.00
  WS02004412WS02004413    1.00   0.07  0.00  0.00  0.93  0.00  0.00  0.00  0.00  0.00
  WS02004410WS02004411    1.00   0.07  0.00  0.00  0.93  0.00  0.00  0.00  0.00  0.00
  WS02004409WS02004410    1.00   0.07  0.00  0.00  0.93  0.00  0.00  0.00  0.00  0.00
  WS02004407WS02004409    1.00   0.07  0.00  0.00  0.93  0.01  0.00  0.00  0.80  0.00
  WS02004406WS02004407    1.00   0.00  0.07  0.00  0.93  0.00  0.00  0.00  0.00  0.00
  WS02004405WS02004406    1.00   0.00  0.00  0.00  1.00  0.00  0.00  0.00  0.02  0.00
  WS02004404WS02004405    1.00   0.00  0.00  0.00  1.00  0.00  0.00  0.00  0.00  0.00
  WS02004403WS02004404    1.00   0.00  0.02  0.00  0.98  0.00  0.00  0.00  0.02  0.00
  WS02004402WS02004403    1.00   0.01  0.00  0.00  0.99  0.00  0.00  0.00  0.00  0.00
  WS02004139WS02001211    1.00   0.00  0.00  0.00  1.00  0.00  0.00  0.00  0.00  0.00
  WS02004138WS02004139    1.00   0.00  0.00  0.00  1.00  0.00  0.00  0.00  1.00  0.00
  WS02003067WS02003066    1.00   0.09  0.00  0.00  0.91  0.00  0.00  0.00  0.00  0.00
  WS02001213WS02003059    1.00   0.00  0.00  0.00  1.00  0.00  0.00  0.00  0.00  0.00
  WS02001212WS02001213    1.00   0.00  0.00  0.00  0.90  0.00  0.10  0.00  0.00  0.00
  WS02001211WS02001212    1.00   0.00  0.00  0.00  1.00  0.00  0.00  0.00  0.00  0.00
  WS02003072WS02003073    1.00   0.00  0.00  0.00  0.00  0.00  0.00  1.00  0.00  0.00
  WS02003069WS02003072    1.00   0.00  0.00  0.00  1.00  0.00  0.00  0.00  0.13  0.00
  WS02003060WS02003069    1.00   0.00  0.00  0.00  0.99  0.01  0.00  0.00  0.11  0.00
  WS02003059WS02003060    1.00   0.00  0.00  0.00  1.00  0.00  0.00  0.00  0.00  0.00
  HS02004901HS02004770    1.00   0.04  0.00  0.00  0.96  0.00  0.00  0.00  0.00  0.00
  HS02004876HS02004881    1.00   0.01  0.00  0.00  0.88  0.11  0.00  0.00  0.00  0.00
  HS02004870HS02004876    1.00   0.00  0.00  0.00  0.99  0.00  0.00  0.00  0.95  0.00
  HS02004842HS02004848    1.00   0.00  0.04  0.00  0.96  0.00  0.00  0.00  0.54  0.00
  HS02004837HS02004842    1.00   0.00  0.00  0.00  1.00  0.00  0.00  0.00  0.11  0.00
  HS02004830HS02004837    1.00   0.00  0.00  0.00  1.00  0.00  0.00  0.00  0.99  0.00
  HS02004824HS02004830    1.00   0.00  0.00  0.00  1.00  0.00  0.00  0.00  0.01  0.00
  HS02004817HS02004824    1.00   0.00  0.00  0.00  1.00  0.00  0.00  0.00  0.97  0.00
  HS02004770HS02004777    1.00   0.00  0.04  0.00  0.96  0.00  0.00  0.00  0.03  0.00
  HS02004799HS02004480    1.00   0.00  0.01  0.00  0.95  0.00  0.04  0.00  0.00  0.00
  HS02004792HS02004799    1.00   0.00  0.00  0.00  0.99  0.01  0.00  0.00  0.98  0.00
  HS02004788HS02004792    1.00   0.00  0.00  0.00  1.00  0.00  0.00  0.00  0.98  0.00
  HS02004785HS02004788    1.00   0.00  0.00  0.00  1.00  0.00  0.00  0.00  0.00  0.00
  HS02004777HS02004785    1.00   0.00  0.00  0.00  1.00  0.00  0.00  0.00  0.12  0.00
  HS02004480HS02004478    1.00   0.05  0.00  0.00  0.60  0.00  0.00  0.36  0.00  0.00
  HS02004479HS02004480    1.00   0.01  0.00  0.00  0.99  0.00  0.00  0.00  0.12  0.00
  HS02004862HS02004870    1.00   0.00  0.00  0.00  1.00  0.00  0.00  0.00  0.04  0.00
  HS02004848HS02004852    1.00   0.04  0.00  0.00  0.96  0.00  0.00  0.00  0.64  0.00
  HS02004856HS02004862    1.00   0.00  0.06  0.00  0.94  0.00  0.00  0.00  0.83  0.00
  HS02004852HS02004856    1.00   0.04  0.00  0.00  0.95  0.00  0.00  0.00  0.81  0.00
  HS02004802HS02004478    1.00   0.05  0.00  0.00  0.95  0.00  0.00  0.00  0.02  0.00
  HS02004478WS02006287    1.00   0.05  0.00  0.00  0.69  0.26  0.00  0.00  0.65  0.00
  HS02004817HS02004807    1.00   0.00  0.04  0.00  0.96  0.00  0.00  0.00  0.01  0.00
  HS02004807HS02004802    1.00   0.04  0.00  0.00  0.95  0.00  0.00  0.01  0.00  0.00
  YS02001759YS02001757    1.00   0.00  0.00  0.00  1.00  0.00  0.00  0.00  0.16  0.00
  YS02001762YS02001759    1.00   0.00  0.00  0.00  1.00  0.00  0.00  0.00  0.03  0.00
  YS02001765YS02001762    1.00   0.00  0.00  0.00  1.00  0.00  0.00  0.00  0.14  0.00
  YS02001770YS02001767    1.00   0.00  0.00  0.00  1.00  0.00  0.00  0.00  0.00  0.00
  YS02001774YS02001770    1.00   0.00  0.05  0.00  0.95  0.00  0.00  0.00  0.03  0.00
  YS02001779YS02001774    1.00   0.00  0.00  0.00  1.00  0.00  0.00  0.00  0.19  0.00
  YS02001649YS02001757    1.00   0.00  0.00  0.00  1.00  0.00  0.00  0.00  0.16  0.00
  YS02001767YS02001765    1.00   0.00  0.00  0.00  1.00  0.00  0.00  0.00  0.00  0.00
  YS02006561YS02001783    1.00   0.06  0.00  0.00  0.39  0.55  0.00  0.00  0.47  0.00
  YS02001783YS02001784    1.00   0.00  0.07  0.00  0.93  0.00  0.00  0.00  0.01  0.00
  YS02001784YS02001785    1.00   0.00  0.00  0.00  1.00  0.00  0.00  0.00  0.18  0.00
  YS02001788YS02001790    1.00   0.00  0.00  0.00  0.44  0.56  0.00  0.00  0.36  0.00
  YS02001790YS02001791    1.00   0.00  0.00  0.00  0.40  0.60  0.00  0.00  0.42  0.00
  YS02001791YS02001793    1.00   0.00  0.00  0.00  0.44  0.56  0.00  0.00  0.03  0.00
  YS02001910YS02001907    1.00   0.00  0.00  0.00  0.99  0.00  0.00  0.01  0.12  0.00
  YS02001786YS02001788    1.00   0.00  0.00  0.00  0.42  0.58  0.00  0.00  0.00  0.00
  YS02001915YS02001910    1.00   0.00  0.00  0.00  0.99  0.01  0.00  0.00  0.16  0.00
  YS02001918YS02001915    1.00   0.00  0.00  0.00  0.99  0.01  0.00  0.00  0.53  0.00
  YS02001923YS02001920    1.00   0.00  0.00  0.00  1.00  0.00  0.00  0.00  0.82  0.00
  YS02001926YS02001923    1.00   0.00  0.03  0.00  0.21  0.00  0.77  0.00  0.00  0.00
  YS02001929YS02001926    1.00   0.00  0.04  0.00  0.96  0.00  0.00  0.00  0.74  0.00
  YS02001920YS02001918    1.00   0.00  0.00  0.00  1.00  0.00  0.00  0.00  0.00  0.00
  YS02001629YS02163301    1.00   0.05  0.00  0.00  0.94  0.00  0.00  0.00  0.00  0.00
  YS02001619YS02001622    1.00   0.04  0.00  0.00  0.96  0.00  0.00  0.00  0.00  0.00
  YS02001622YS02001625    1.00   0.04  0.00  0.00  0.96  0.00  0.00  0.00  0.05  0.00
  YS02001625YS02001629    1.00   0.05  0.02  0.00  0.91  0.00  0.02  0.00  0.00  0.00
  YS02163301YS02001633    1.00   0.00  0.05  0.00  0.95  0.00  0.00  0.00  0.00  0.00
  YS02163601YS02164001    1.00   0.00  0.03  0.00  0.97  0.00  0.00  0.00  0.00  0.00
  YS02164001YS02001641    1.00   0.00  0.02  0.00  0.97  0.00  0.00  0.00  0.06  0.00
  YS02001641YS02001644    1.00   0.00  0.00  0.00  1.00  0.00  0.00  0.00  0.00  0.00
  YS02001647YS02001649    1.00   0.00  0.06  0.00  0.94  0.00  0.00  0.00  0.01  0.00
  YS02006553YS02006556    1.00   0.01  0.00  0.00  0.99  0.00  0.00  0.00  0.03  0.00
  YS02006556YS02006558    1.00   0.00  0.00  0.00  1.00  0.00  0.00  0.00  0.00  0.00
  YSB6556YSB1171          1.00   0.02  0.03  0.00  0.96  0.00  0.00  0.00  0.00  0.00
  YS02001907YS02006553    1.00   0.00  0.01  0.00  0.99  0.00  0.00  0.00  0.00  0.00
  YS02006558YS02006561    1.00   0.06  0.00  0.00  0.20  0.73  0.00  0.00  0.49  0.00
  YS02001633YS02163601    1.00   0.00  0.00  0.00  1.00  0.00  0.00  0.00  0.15  0.00
  YS02001644YS02001647    1.00   0.00  0.06  0.00  0.94  0.00  0.00  0.00  0.00  0.00
  YS02001745YS02001748    1.00   0.00  0.00  0.00  0.88  0.01  0.00  0.11  0.04  0.00
  YS02001748YS02001751    1.00   0.00  0.00  0.00  0.96  0.04  0.00  0.00  0.15  0.00
  YS02001751YS02001754    1.00   0.00  0.00  0.00  0.93  0.00  0.00  0.07  0.02  0.00
  YS02001754YS02001757    1.00   0.00  0.00  0.00  1.00  0.00  0.00  0.00  0.18  0.00
  YS02001882YS02001884    1.00   0.05  0.00  0.00  0.95  0.00  0.00  0.00  0.00  0.00
  YS02001884YS02001887    1.00   0.02  0.02  0.00  0.96  0.00  0.00  0.00  0.00  0.00
  YS02001890YS02001895    1.00   0.00  0.05  0.00  0.95  0.00  0.00  0.00  0.00  0.00
  YS02001895YS02001898    1.00   0.05  0.00  0.00  0.93  0.00  0.01  0.00  0.00  0.00
  YS02001898YS02001901    1.00   0.06  0.00  0.00  0.94  0.00  0.00  0.00  0.01  0.00
  YS02001901YS02001904    1.00   0.06  0.00  0.00  0.94  0.00  0.00  0.00  0.00  0.00
  YS02001904YS02001907    1.00   0.00  0.05  0.00  0.94  0.00  0.00  0.00  0.00  0.00
  YS02001887YS02001890    1.00   0.00  0.00  0.00  0.99  0.00  0.01  0.00  0.00  0.00
  YS02001652YS02001649    1.00   0.00  0.00  0.00  1.00  0.00  0.00  0.00  0.17  0.00
  YS02001655YS02001652    1.00   0.00  0.00  0.00  0.93  0.00  0.00  0.07  0.02  0.00
  YS02001658YS02001655    1.00   0.00  0.05  0.00  0.91  0.04  0.00  0.00  0.10  0.00
  YS02001661YS02001658    1.00   0.05  0.00  0.00  0.88  0.07  0.00  0.00  0.11  0.00
  YS02001664YS02001661    1.00   0.04  0.00  0.00  0.90  0.06  0.00  0.00  0.20  0.00
  YSB1154YSB6556          1.00   0.04  0.00  0.00  0.96  0.00  0.00  0.00  0.02  0.00
  YSB1174YSB1171          1.00   0.02  0.01  0.00  0.97  0.00  0.00  0.00  0.00  0.00
  YSB1171HS02004479       1.00   0.02  0.00  0.00  0.98  0.00  0.00  0.00  0.10  0.00
  HS02004881HS02006253    1.00   0.02  0.00  0.00  0.49  0.02  0.00  0.47  0.33  0.00
  YS02001793JiankangQianchi    1.00   0.00  0.00  0.00  0.71  0.29  0.00  0.00  0.39  0.00
  YS02001757CaochengTiaoxuchi    1.00   0.00  0.09  0.00  0.91  0.00  0.00  0.00  0.00  0.00
  WSF200WS02003060        1.00   0.00  0.02  0.00  0.98  0.00  0.00  0.00  0.52  0.00
  1                       1.00   0.00  0.00  0.00  0.00  1.00  0.00  0.00  0.51  0.00
  
  
  *************************
  Conduit Surcharge Summary
  *************************
  
  ----------------------------------------------------------------------------
                                                           Hours        Hours 
                         --------- Hours Full --------   Above Full   Capacity
  Conduit                Both Ends  Upstream  Dnstream   Normal Flow   Limited
  ----------------------------------------------------------------------------
  WS02006229WS02006228        3.02      3.05      3.02      3.43         3.02
  WS02006256WS02006235        4.90      4.91      6.66      4.05         0.01
  WS02006253WS02006251        1.49      1.49      1.52      0.01         0.03
  WS02006252WS02006251        1.23      1.23      1.61      1.14         0.01
  WS02006251WS02006249        1.50      1.50      1.56      0.77         0.72
  WS02006249WS02006248        1.53      1.53      1.56      1.92         0.01
  WS02006248WS02006247        1.57      1.57      1.70      0.01         0.01
  WS02006247WS02006245        1.71      1.72      1.71      2.34         1.61
  WS02006245WS02006243        1.73      1.73      1.78      0.20         0.26
  WS02006243WS02006242        1.80      1.80      1.97      0.01         0.01
  WS02006242WS02006240        1.94      1.94      2.03      1.17         0.01
  WS02006240WS02006239        1.96      1.96      2.06      0.73         0.74
  WS02006239WS02006238        2.25      2.25      2.46      0.76         0.78
  WS02006238WS02006235        2.46      2.46      2.55      0.01         0.01
  WS02006235WS02006234        2.18      2.18      2.42      4.84         0.01
  WS02006234WS02006232        2.33      2.33      2.79      0.67         0.68
  WS02006232WS02006231        1.63      1.63      2.79      0.82         0.01
  WS02006231WS02006230        1.23      1.23      1.72      4.98         0.01
  WS02006230WS02006229        3.24      3.38      3.24      5.33         3.24
[...]
  YS02001779YS02001774        5.56      5.56      5.74      0.01         0.01
  YS02001649YS02001757        5.76      5.76      5.86      0.01         0.01
  YS02001767YS02001765        5.70      5.70      5.72      0.01         0.01
  YS02006561YS02001783        0.94      0.94      1.19      0.01         0.01
  YS02001783YS02001784        1.14      1.19      1.14      1.56         1.14
  YS02001784YS02001785        1.07      1.14      1.07      2.50         1.07
  YS02001788YS02001790        1.02      1.02      2.02      0.01         0.01
  YS02001790YS02001791        2.02      2.02      2.18      1.07         1.05
  YS02001791YS02001793        2.18      2.18      2.62      0.01         0.01
  YS02001910YS02001907        1.24      1.24      1.90      0.01         0.01
  YS02001786YS02001788        1.01      1.07      1.02      2.08         1.01
  YS02001915YS02001910        1.06      1.06      1.24      0.01         0.01
  YS02001918YS02001915        0.90      0.90      1.06      0.01         0.01
  YS02001923YS02001920        0.75      0.75      0.93      0.01         0.01
  YS02001926YS02001923        0.01      0.01      0.01      0.01         0.01
  YS02001929YS02001926        0.01      0.01      0.01      0.01         0.01
  YS02001920YS02001918        0.90      0.90      0.93      0.01         0.01
  YS02001629YS02163301        5.67      5.67      5.69      0.01         0.01
  YS02001619YS02001622        5.37      5.37      5.41      0.01         0.01
  YS02001622YS02001625        5.41      5.41      5.64      0.01         0.01
  YS02001625YS02001629        5.38      5.38      5.64      0.01         0.01
  YS02163301YS02001633        5.69      5.69      5.72      0.01         0.01
  YS02163601YS02164001        5.72      5.72      5.75      0.01         0.01
  YS02164001YS02001641        5.72      5.72      5.73      0.01         0.03
  YS02001641YS02001644        5.73      5.73      5.73      1.72         2.04
  YS02001647YS02001649        5.62      5.62      5.76      0.01         0.01
  YS02006553YS02006556        1.47      1.47      2.00      0.01         0.01
  YS02006556YS02006558        1.67      1.67      2.07      0.01         0.01
  YSB6556YSB1171              0.01      0.01      0.07      0.01         0.01
  YS02001907YS02006553        2.55      2.55      2.80      0.01         0.01
  YS02006558YS02006561        1.04      1.43      1.04      2.35         1.04
  YS02001633YS02163601        5.71      5.71      5.75      0.01         0.01
  YS02001644YS02001647        5.62      5.62      5.73      0.01         0.01
  YS02001745YS02001748        0.01      0.01      5.21      0.01         0.01
  YS02001748YS02001751        5.26      5.26      5.38      0.01         0.01
  YS02001751YS02001754        5.38      5.38      5.58      0.01         0.01
  YS02001754YS02001757        5.62      5.62      5.86      0.01         0.01
  YS02001882YS02001884        1.06      1.06      1.09      0.01         0.01
  YS02001884YS02001887        1.14      1.14      1.17      0.01         0.01
  YS02001890YS02001895        1.04      1.04      1.26      0.01         0.01
  YS02001895YS02001898        1.03      1.03      1.04      0.01         0.01
  YS02001898YS02001901        1.05      1.05      1.13      0.01         0.01
  YS02001901YS02001904        1.10      1.10      1.13      0.01         0.01
  YS02001904YS02001907        1.10      1.10      2.02      0.01         0.01
  YS02001887YS02001890        1.20      1.20      1.22      0.16         0.01
  YS02001652YS02001649        5.63      5.63      5.76      0.01         0.01
  YS02001655YS02001652        5.39      5.39      5.61      0.01         0.01
  YS02001658YS02001655        5.25      5.25      5.39      0.01         0.01
  YS02001661YS02001658        0.07      0.07      5.25      0.01         0.01
  YS02001664YS02001661        0.01      0.01      0.94      0.01         0.01
  HS02004881HS02006253        0.01      0.01      0.94      0.01         0.01
  YS02001793JiankangQianchi        2.51      2.51      4.12      0.01         0.01
  YS02001757CaochengTiaoxuchi        5.11      5.11      5.86      0.01         0.01
  
  
  ***************
  Pumping Summary
  ***************
  
  ---------------------------------------------------------------------------------------------------------
                                                  Min       Avg       Max     Total     Power    % Time Off
                        Percent   Number of      Flow      Flow      Flow    Volume     Usage    Pump Curve
  Pump                 Utilized   Start-Ups       LPS       LPS       LPS  10^6 ltr     Kw-hr    Low   High
  ---------------------------------------------------------------------------------------------------------
  CC-Pump-1               38.29           4      0.00    146.25    200.00     1.620      1.86    0.0    0.0
  CC-Pump-2               23.39           4      0.00    115.18    200.00     0.900      1.29    0.0    0.0
  JK-Pump-1               57.46           5      0.00    226.85    300.00     3.419     50.36    0.0    0.0
  JK-Pump-2               55.34           5      0.00    450.96    683.00     6.303     86.84    0.0   95.3
  XR-Pump-1              100.00           1      0.00     95.00     95.00     2.679     28.00    0.0    0.0
  XR-Pump-2               97.87           2      0.00     93.01     95.00     2.508     24.32    0.0    0.0
  XR-Pump-3               93.62           3      0.00     92.99     95.00     2.394     21.73    0.0    0.0
  XR-Pump-4               93.62           3      0.00     92.99     95.00     2.394     21.73    0.0    0.0
  
  
  ***************************
  Link Pollutant Load Summary
  ***************************
  
  ------------------------------------------------------------------------------------------
                                 COD            SS            TN            TP         NH4-N
  Link                            kg            kg            kg            kg            kg
  ------------------------------------------------------------------------------------------
  WS02003066WSF200           748.653      1403.907        20.083         1.789        10.641
  WS02006287WS02006284       319.507       608.190        10.314         1.015         5.678
  WS02006284WS02006280       319.990       608.984        10.360         1.021         5.707
  WS02006280WS02006229       319.930       608.869        10.357         1.020         5.705
  WS02006229WS02006228       756.660      1418.916        19.723         1.724        10.373
  WS02006256WS02006235       209.257       386.270         4.617         0.359         2.335
  WS02006253WS02006251        60.410       119.147         1.306         0.097         0.644
  WS02006252WS02006251       220.870       404.979         4.581         0.331         2.250
  WS02006251WS02006249       273.336       509.604         5.737         0.418         2.824
  WS02006249WS02006248       243.703       453.251         5.124         0.374         2.523
  WS02006248WS02006247       242.795       451.573         5.106         0.372         2.514
  WS02006247WS02006245       241.940       449.988         5.088         0.371         2.506
  WS02006245WS02006243       241.358       449.009         5.071         0.370         2.496
  WS02006243WS02006242       241.968       450.200         5.085         0.371         2.503
  WS02006242WS02006240       243.450       452.818         5.118         0.373         2.520
  WS02006240WS02006239       245.340       456.099         5.163         0.377         2.543
  WS02006239WS02006238       247.895       460.291         5.239         0.383         2.584
  WS02006238WS02006235       249.486       462.805         5.284         0.388         2.609
  WS02006235WS02006234       442.917       821.170         9.515         0.716         4.744
  WS02006234WS02006232       441.926       819.333         9.498         0.715         4.737
  WS02006232WS02006231       440.728       817.159         9.472         0.713         4.724
  WS02006231WS02006230       439.619       815.158         9.448         0.711         4.712
  WS02006230WS02006229       438.124       812.527         9.410         0.708         4.692
  WS02006228WS02006109       755.112      1416.090        19.687         1.721        10.355
  WS02006116WS02004401       764.694      1433.113        20.444         1.817        10.823
  WS02006115WS02006116       766.513      1436.420        20.485         1.820        10.844
  WS02006113WS02006111       759.131      1421.655        20.377         1.812        10.798
  WS02006112WS02006115       768.517      1439.978        20.548         1.826        10.878
  WS02006111WS02006112       758.395      1420.305        20.362         1.811        10.791
  WS02006110WS02006113       760.232      1423.595        20.413         1.816        10.817
  WS02006109WS02006110       762.044      1426.795        20.474         1.822        10.851
  WS02004411WS02004412       753.246      1412.117        20.234         1.804        10.725
  WS02004401WS02004402       762.894      1429.903        20.390         1.812        10.793
  WS02004413WS02003067       749.502      1405.498        20.101         1.791        10.650
  WS02004412WS02004413       751.730      1409.384        20.194         1.801        10.703
  WS02004410WS02004411       754.525      1414.449        20.266         1.807        10.741
  WS02004409WS02004410       755.870      1416.875        20.303         1.810        10.761
  WS02004407WS02004409       756.922      1418.815        20.324         1.811        10.771
  WS02004406WS02004407       757.170      1419.333        20.319         1.810        10.767
  WS02004405WS02004406       759.255      1423.014        20.403         1.819        10.815
  WS02004404WS02004405       760.260      1424.959        20.391         1.816        10.804
  WS02004403WS02004404       760.014      1424.734        20.309         1.805        10.750
  WS02004402WS02004403       761.388      1427.178        20.353         1.809        10.774
  WS02004139WS02001211      1388.173      2304.689       112.727        13.760        69.486
  WS02004138WS02004139      1394.523      2315.297       113.216        13.820        69.787
  WS02003067WS02003066       748.947      1404.435        20.093         1.790        10.647
  WS02001213WS02003059      1420.760      2355.849       116.117        14.188        71.617
  WS02001212WS02001213      1430.036      2371.220       116.868        14.280        72.080
  WS02001211WS02001212      1432.337      2374.977       117.067        14.305        72.203
  WS02003072WS02003073      2267.784      3915.626       146.098        17.222        88.463
  WS02003069WS02003072      2273.302      3924.690       146.541        17.276        88.737
  WS02003060WS02003069      2276.373      3930.046       146.703        17.294        88.832
  WS02003059WS02003060      1417.480      2350.299       115.882        14.160        71.474
  HS02004901HS02004770        13.094        25.474         0.248         0.019         0.116
  HS02004876HS02004881        45.519        90.356         0.999         0.073         0.491
  HS02004870HS02004876        34.385        68.112         0.798         0.060         0.395
  HS02004842HS02004848         6.457        12.343         0.134         0.009         0.062
  HS02004837HS02004842        11.055        19.635         0.603         0.068         0.356
  HS02004830HS02004837        70.297       122.727         4.643         0.552         2.827
  HS02004824HS02004830        71.069       123.984         4.715         0.561         2.871
  HS02004817HS02004824        97.164       176.411         5.254         0.596         3.134
  HS02004770HS02004777        49.665        97.719         1.021         0.069         0.472
  HS02004799HS02004480       162.340       310.875         4.263         0.379         2.210
  HS02004792HS02004799       147.286       280.152         4.028         0.367         2.105
  HS02004788HS02004792        82.824       157.703         2.666         0.255         1.440
  HS02004785HS02004788        51.127       100.062         1.172         0.089         0.567
  HS02004777HS02004785        50.451        98.954         1.112         0.081         0.530
  HS02004480HS02004478       204.837       395.229         4.971         0.429         2.543
  HS02004479HS02004480        46.126        90.114         1.036         0.091         0.538
  HS02004862HS02004870        25.801        50.344         0.628         0.050         0.314
  HS02004848HS02004852        10.252        19.886         0.210         0.014         0.097
  HS02004856HS02004862        17.526        34.753         0.350         0.023         0.164
  HS02004852HS02004856        10.256        19.891         0.210         0.014         0.097
  HS02004802HS02004478       115.342       214.057         5.397         0.592         3.169
  HS02004478WS02006287       319.714       608.546        10.331         1.017         5.689
  HS02004817HS02004807        95.860       174.318         5.130         0.581         3.057
  HS02004807HS02004802       115.599       214.459         5.430         0.596         3.189
  YS02001759YS02001757       319.889       588.553         6.358         0.444         3.107
  YS02001762YS02001759       168.297       310.244         3.510         0.249         1.734
  YS02001765YS02001762       169.920       314.186         3.562         0.254         1.763
  YS02001770YS02001767       172.924       322.192         3.469         0.235         1.690
  YS02001774YS02001770       295.675       571.589         5.724         0.381         2.769
  YS02001779YS02001774       295.084       570.456         5.807         0.394         2.826
  YS02001649YS02001757       403.051       726.061         8.186         0.561         3.949
  YS02001767YS02001765       171.922       318.795         3.617         0.258         1.792
  YS02006561YS02001783      1020.300      1890.690        21.451         1.605        10.684
  YS02001783YS02001784      1020.187      1890.519        21.447         1.605        10.682
  YS02001784YS02001785      1027.539      1902.317        22.160         1.694        11.128
  YS02001788YS02001790      1028.174      1903.362        22.234         1.703        11.175
  YS02001790YS02001791      1029.239      1905.107        22.335         1.716        11.238
  YS02001791YS02001793      1029.204      1905.044        22.332         1.716        11.236
  YS02001910YS02001907       392.118       722.892         9.526         0.736         4.898
  YS02001786YS02001788      1027.777      1902.733        22.189         1.698        11.146
  YS02001915YS02001910       392.170       722.975         9.477         0.729         4.865
  YS02001918YS02001915       192.047       339.184         5.370         0.492         2.901
  YS02001923YS02001920       168.997       300.891         3.366         0.245         1.657
  YS02001926YS02001923       167.136       297.677         3.274         0.235         1.602
  YS02001929YS02001926       164.757       293.633         3.128         0.218         1.514
  YS02001920YS02001918       189.835       334.541         5.305         0.486         2.866
  YS02001629YS02163301        96.187       170.091         2.030         0.131         0.947
  YS02001619YS02001622       175.883       321.153         3.602         0.236         1.684
  YS02001622YS02001625       174.693       319.262         3.573         0.234         1.671
  YS02001625YS02001629        97.258       171.838         2.054         0.133         0.958
  YS02163301YS02001633        96.570       171.008         2.033         0.132         0.949
  YS02163601YS02164001       405.765       733.228         7.899         0.562         3.784
  YS02164001YS02001641       405.253       732.357         7.880         0.560         3.773
  YS02001641YS02001644       405.320       732.391         7.875         0.560         3.770
  YS02001647YS02001649       510.912       932.942        10.255         0.709         4.913
  YS02006553YS02006556       686.280      1260.916        14.823         1.139         7.471
  YS02006556YS02006558       686.269      1260.886        14.795         1.135         7.452
  YSB6556YSB1171              26.522        51.969         0.537         0.045         0.272
  YS02001907YS02006553       686.392      1261.146        14.832         1.140         7.476
  YS02006558YS02006561      1020.286      1890.651        21.450         1.605        10.684
  YS02001633YS02163601       406.478       734.336         7.880         0.558         3.768
  YS02001644YS02001647       515.820       942.043        10.329         0.714         4.947
  YS02001745YS02001748       248.938       465.717         5.388         0.367         2.664
  YS02001748YS02001751       247.489       462.865         5.462         0.380         2.718
  YS02001751YS02001754       246.529       461.280         5.447         0.379         2.712
  YS02001754YS02001757       247.297       462.432         5.612         0.402         2.820
  YS02001882YS02001884         2.281         3.912         0.047         0.004         0.024
  YS02001884YS02001887         6.955        12.332         0.137         0.011         0.068
  YS02001890YS02001895       451.176       846.862         8.305         0.625         4.051
  YS02001895YS02001898       451.025       846.673         8.299         0.624         4.048
  YS02001898YS02001901       450.834       846.347         8.295         0.624         4.046
  YS02001901YS02001904       450.683       846.136         8.301         0.625         4.050
  YS02001904YS02001907       450.903       846.472         8.354         0.632         4.084
  YS02001887YS02001890       468.401       881.016         8.648         0.653         4.224
  YS02001652YS02001649       207.846       385.173         4.197         0.302         1.967
  YS02001655YS02001652       208.615       386.405         4.217         0.303         1.977
  YS02001658YS02001655       208.308       385.898         4.134         0.292         1.922
  YS02001661YS02001658       211.900       392.253         4.209         0.297         1.956
  YS02001664YS02001661       218.763       403.432         4.366         0.307         2.028
  YSB1154YSB6556              26.085        51.272         0.486         0.038         0.239
  YSB1174YSB1171              18.021        35.564         0.361         0.029         0.180
  YSB1171HS02004479           46.091        90.059         1.039         0.092         0.540
  HS02004881HS02006253        51.677       103.012         1.110         0.080         0.544
  YS02001793JiankangQianchi      1029.865      1906.057        22.376         1.721        11.263
  YS02001757CaochengTiaoxuchi       511.409       931.697        10.678         0.768         5.244
  WSF200WS02003060           748.302      1403.210        20.083         1.790        10.643
  1                         2273.625      3923.771       146.969        17.336        89.020
  CC-Pump-1                  142.693       261.711         2.958         0.214         1.453
  CC-Pump-2                   78.174       143.266         1.622         0.117         0.796
  JK-Pump-1                  253.820       473.108         5.491         0.424         2.765
  JK-Pump-2                  546.578      1025.049        11.380         0.855         5.666
  XR-Pump-1                  391.794       647.929        32.430         3.970        20.024
  XR-Pump-2                  353.081       585.994        28.720         3.507        17.706
  XR-Pump-3                  326.652       543.708        26.183         3.190        16.121
  XR-Pump-4                  326.652       543.708        26.183         3.190        16.121
  

  Analysis begun on:  Thu Jul 15 17:32:31 2021
  Analysis ended on:  Thu Jul 15 17:32:34 2021
  Total elapsed time: 00:00:03