
  EPA STORM WATER MANAGEMENT MODEL - VERSION 5.1 (Build 5.3.0.dev0)
  --------------------------------------------------------------

  WARNING 04: minimum elevation drop used for Conduit WS02004404WS02004405
  WARNING 03: negative offset ignored for Link YS02001904YS02001907
  
  *********************************************************
  NOTE: The summary statistics displayed in this report are
  based on results found at every computational time step,  
  not just on results from each reporting time step.
  *********************************************************
  
  ****************
  Analysis Options
  ****************
  Flow Units ............... LPS
  Process Models:
    Rainfall/Runoff ........ YES
    RDII ................... NO
    Snowmelt ............... NO
    Groundwater ............ NO
    Flow Routing ........... YES
    Ponding Allowed ........ NO
    Water Quality .......... YES
  Infiltration Method ...... HORTON
  Flow Routing Method ...... DYNWAVE
  Surcharge Method ......... EXTRAN
  Starting Date ............ 08/28/2015 08:00:00
  Ending Date .............. 08/28/2015 15:50:00
  Antecedent Dry Days ...... 8.0
  Report Time Step ......... 00:01:00
  Wet Time Step ............ 00:01:00
  Dry Time Step ............ 00:01:00
  Routing Time Step ........ 5.00 sec
  Variable Time Step ....... YES
  Maximum Trials ........... 8
  Number of Threads ........ 4
  Head Tolerance ........... 0.001500 m
  
  
  **************************        Volume         Depth
  Runoff Quantity Continuity     hectare-m            mm
  **************************     ---------       -------
  Total Precipitation ......        10.887        23.836
  Evaporation Loss .........         0.000         0.000
  Infiltration Loss ........         1.411         3.089
  Surface Runoff ...........         8.292        18.155
  Final Storage ............         1.186         2.596
  Continuity Error (%) .....        -0.016
  
  
  **************************           COD            SS            TN            TP         NH4-N
  Runoff Quality Continuity             kg            kg            kg            kg            kg
  **************************    ----------    ----------    ----------    ----------    ----------
  Initial Buildup ..........     41378.656     70582.865      1804.177       168.684      1032.807
  Surface Buildup ..........        41.425        91.431         2.568         0.227         1.442
  Wet Deposition ...........         0.000         0.000         0.000         0.000         0.000
  Sweeping Removal .........         0.000         0.000         0.000         0.000         0.000
  Infiltration Loss ........       164.554       320.127         3.263         0.236         1.574
  BMP Removal ..............         0.000         0.000         0.000         0.000         0.000
  Surface Runoff ...........      9366.500     18283.806       183.722        12.955        88.133
  Remaining Buildup ........     31885.964     52064.522      1619.692       155.715       944.511
  Continuity Error (%) .....         0.007         0.008         0.004         0.003         0.003
  
  
  **************************        Volume        Volume
  Flow Routing Continuity        hectare-m      10^6 ltr
  **************************     ---------     ---------
  Dry Weather Inflow .......         0.616         6.165
  Wet Weather Inflow .......         8.290        82.901
  Groundwater Inflow .......         0.000         0.000
  RDII Inflow ..............         0.000         0.000
  External Inflow ..........         0.102         1.024
  External Outflow .........         2.141        21.410
  Flooding Loss ............         6.390        63.902
  Evaporation Loss .........         0.000         0.000
  Exfiltration Loss ........         0.000         0.000
  Initial Stored Volume ....         0.076         0.761
  Final Stored Volume ......         0.674         6.736
  Continuity Error (%) .....        -1.319
  
  
  **************************           COD            SS            TN            TP         NH4-N
  Quality Routing Continuity            kg            kg            kg            kg            kg
  **************************    ----------    ----------    ----------    ----------    ----------
  Dry Weather Inflow .......      1541.201      2465.922       147.955        18.494        92.472
  Wet Weather Inflow .......      9365.274     18281.657       183.695        12.953        88.119
  Groundwater Inflow .......         0.000         0.000         0.000         0.000         0.000
  RDII Inflow ..............         0.000         0.000         0.000         0.000         0.000
  External Inflow ..........       183.418       293.469        17.608         2.201        11.005
  External Outflow .........      2673.022      4892.008       130.963        14.568        76.878
  Flooding Loss ............      7626.349     14712.520       189.441        16.191        98.504
  Exfiltration Loss ........         0.000         0.000         0.000         0.000         0.000
  Mass Reacted .............         0.000         0.000         0.000         0.000         0.000
  Initial Stored Mass ......         0.000         0.000         0.000         0.000         0.000
  Final Stored Mass ........       691.972      1277.291        25.591         2.597        14.448
  Continuity Error (%) .....         0.889         0.757         0.934         0.872         0.922
  
  
  *************************
  Highest Continuity Errors
  *************************
  Node YS02001884 (8.20%)
  Node JK-storage (-8.12%)
  Node HS02004842 (7.73%)
  Node HS02004817 (1.58%)
  Node YSB1171 (1.38%)
  
  
  ***************************
  Time-Step Critical Elements
  ***************************
  Link WS02006252WS02006251 (49.97%)
  Link WS02006280WS02006229 (15.23%)
  Link WS02006238WS02006235 (11.64%)
  Link YS02001793JiankangQianchi (6.43%)
  Link YS02006556YS02006558 (2.53%)
  
  
  ********************************
  Highest Flow Instability Indexes
  ********************************
  Link WS02006113WS02006111 (45)
  Link YS02163601YS02164001 (28)
  Link YS02163301YS02001633 (27)
  Link YS02001629YS02163301 (27)
  Link YS02001619YS02001622 (26)
  
  
  *************************
  Routing Time Step Summary
  *************************
  Minimum Time Step           :     0.50 sec
  Average Time Step           :     1.43 sec
  Maximum Time Step           :     5.00 sec
  Percent in Steady State     :     0.00
  Average Iterations per Step :     3.44
  Percent Not Converging      :    10.61
  
  
  ***************************
  Subcatchment Runoff Summary
  ***************************
  
  ------------------------------------------------------------------------------------------------------------------------------
                            Total      Total      Total      Total     Imperv       Perv      Total       Total     Peak  Runoff
                           Precip      Runon       Evap      Infil     Runoff     Runoff     Runoff      Runoff   Runoff   Coeff
  Subcatchment                 mm         mm         mm         mm         mm         mm         mm    10^6 ltr      LPS
  ------------------------------------------------------------------------------------------------------------------------------
  sub0                      23.84       0.00       0.00       0.77      22.12       0.90      23.02        0.02     5.06   0.966
  sub1                      23.84       0.00       0.00       1.33      21.12       1.29      22.41        0.15    33.98   0.940
  sub2                      23.84       0.00       0.00       5.60      14.93       3.22      18.15        0.17    32.49   0.761
  sub3                      23.84       0.00       0.00       5.94      14.89       2.88      17.77        0.40    70.76   0.745
  sub4                      23.84       0.00       0.00       1.46      20.95       1.16      22.11        0.46    81.55   0.928
  sub5                      23.84       0.00       0.00       0.82      22.07       0.85      22.92        0.26    59.56   0.962
  sub7                      23.84       0.00       0.00       1.03      21.63       1.11      22.74        0.08    19.22   0.954
  sub8                      23.84       0.00       0.00       1.05      21.62       1.10      22.72        0.15    35.26   0.953
  sub9                      23.84       0.00       0.00       1.05      21.62       1.10      22.71        0.11    26.33   0.953
  sub10                     23.84       0.00       0.00       0.94      21.84       0.97      22.81        0.25    58.74   0.957
  sub11                     23.84       0.00       0.00       0.92      21.86       0.99      22.85        0.27    65.28   0.959
  sub12                     23.84       0.00       0.00       1.50      20.69       1.60      22.29        0.19    51.10   0.935
  sub14                     23.84       0.00       0.00       1.05      21.61       1.09      22.71        0.22    51.81   0.953
  sub15                     23.84       0.00       0.00       4.05      16.62       3.10      19.72        0.34    74.01   0.827
  sub16                     23.84       0.00       0.00       4.23      15.93       3.63      19.56        0.20    48.29   0.821
  sub17                     23.84       0.00       0.00       4.13      16.17       3.50      19.67        0.17    39.49   0.825
  sub22                     23.84       0.00       0.00       6.08      13.55       4.17      17.72        1.12   235.47   0.743
  sub23                     23.84       0.00       0.00       5.01      14.97       3.81      18.78        0.90   197.86   0.788
  sub60                     23.84       0.00       0.00       2.13      18.82       0.73      19.55        5.93   667.30   0.820
  sub61                     23.84       0.00       0.00       3.01      18.52       1.04      19.56        6.03   717.95   0.821
  sub62                     23.84       0.00       0.00       1.25      20.31       0.65      20.96        6.44   751.14   0.880
  sub63                     23.84       0.00       0.00       5.57      16.04       1.34      17.38        5.26   638.31   0.729
  sub64                     23.84       0.00       0.00       2.78      18.11       0.79      18.90        5.75   644.78   0.793
  sub65                     23.84       0.00       0.00       2.36      18.46       0.74      19.20        5.90   658.64   0.806
  sub66                     23.84       0.00       0.00       5.92      15.37       0.99      16.36        5.02   574.80   0.686
  sub67                     23.84       0.00       0.00       1.18      20.92       0.73      21.65        6.68   814.16   0.908
  sub68                     23.84       0.00       0.00       2.35      19.35       0.99      20.34        6.25   750.28   0.853
  sub69                     23.84       0.00       0.00       2.36      19.61       1.21      20.83        4.87   655.18   0.874
  sub70                     23.84      21.26       0.00       9.95      28.09       5.22      33.30        7.62   861.91   0.738
  sub71                     23.84       0.00       0.00       1.29      20.01       0.62      20.63        4.87   557.88   0.866
  sub72                     23.84       0.00       0.00       1.26      17.48       0.41      17.89        3.64   352.81   0.750
  1                         23.84      32.43       0.00       1.37      34.56      12.51      47.07       11.06  1042.57   0.837
  2                         23.84       0.00       0.00       3.02       5.81       5.77      11.58        4.63   438.27   0.486
  
  
  ****************************
  Subcatchment Washoff Summary
  ****************************
  
  ------------------------------------------------------------------------------------------
                                 COD            SS            TN            TP         NH4-N
  Subcatchment                    kg            kg            kg            kg            kg
  ------------------------------------------------------------------------------------------
  sub0                         5.447        10.648         0.101         0.009         0.050
  sub1                        23.688        48.042         0.463         0.033         0.225
  sub2                        16.966        34.031         0.358         0.025         0.167
  sub3                        41.902        83.507         0.867         0.061         0.406
  sub4                        55.504       114.752         1.120         0.071         0.542
  sub5                        53.600       106.723         1.016         0.079         0.498
  sub7                        11.854        24.343         0.233         0.016         0.114
  sub8                        17.650        37.231         0.360         0.022         0.174
  sub9                        15.191        31.538         0.304         0.020         0.147
  sub10                       44.044        88.979         0.851         0.062         0.416
  sub11                       42.563        86.978         0.834         0.059         0.406
  sub12                       37.050        74.157         0.712         0.055         0.347
  sub14                       32.601        66.963         0.643         0.044         0.313
  sub15                       47.434        94.407         0.941         0.071         0.448
  sub16                       30.857        61.246         0.608         0.047         0.290
  sub17                       28.315        55.641         0.547         0.044         0.262
  sub22                      161.087       316.749         3.138         0.242         1.488
  sub23                       88.506       179.789         1.886         0.128         0.879
  sub60                      597.605      1177.766        11.858         0.760         5.721
  sub61                      735.660      1436.196        13.939         0.989         6.759
  sub62                      737.985      1463.009        14.530         0.959         7.028
  sub63                      558.710      1076.727        11.142         0.807         5.242
  sub64                      776.597      1477.973        14.527         1.087         6.999
  sub65                      790.465      1509.997        14.865         1.095         7.170
  sub66                      450.962       868.123         9.087         0.615         4.293
  sub67                     1073.899      2091.719        20.029         1.513         9.761
  sub68                      789.681      1552.112        15.327         1.072         7.390
  sub69                      691.072      1362.692        13.304         0.964         6.425
  sub70                     1288.654      2534.730        26.762         1.929        12.763
  sub71                      488.493       980.368         9.974         0.604         4.804
  sub72                      441.504       833.180         8.283         0.587         4.008
  1                         1052.298      2081.048        22.042         1.588        10.427
  2                          118.381       219.864         3.138         0.193         1.360
  ------------------------------------------------------------------------------------------
  System                   11346.226     22181.229       223.788        15.848       107.320
  
  
  ******************
  Node Depth Summary
  ******************
  
  ---------------------------------------------------------------------------------
                                 Average  Maximum  Maximum  Time of Max    Reported
                                   Depth    Depth      HGL   Occurrence   Max Depth
  Node                 Type       Meters   Meters   Meters  days hr:min      Meters
  ---------------------------------------------------------------------------------
  WS02001211           JUNCTION     0.78     0.86     5.69     0  01:46        0.86
  WS02001212           JUNCTION     0.49     0.59     5.65     0  01:46        0.59
  WS02001213           JUNCTION     0.73     0.86     5.63     0  01:45        0.86
  WS02003069           JUNCTION     0.52     0.73     5.32     0  01:46        0.73
  WS02003072           JUNCTION     0.58     0.77     5.14     0  01:46        0.77
  WS02003073           JUNCTION     0.36     0.49     4.55     0  01:47        0.49
  WS02003060           JUNCTION     0.46     0.65     5.58     0  01:45        0.65
  WS02003066           JUNCTION     0.25     0.39     5.95     0  01:40        0.39
  WS02003059           JUNCTION     0.78     0.92     5.61     0  01:45        0.92
  WS02003067           JUNCTION     0.60     0.83     6.15     0  01:34        0.83
  WS02004401           JUNCTION     0.75     1.46     7.46     0  01:32        1.29
  WS02004402           JUNCTION     0.77     1.41     7.37     0  01:32        1.26
  WS02004403           JUNCTION     0.79     1.36     7.29     0  01:32        1.23
  WS02004404           JUNCTION     0.86     1.39     7.24     0  01:32        1.27
  WS02004406           JUNCTION     0.85     1.25     7.08     0  01:32        1.19
  WS02004409           JUNCTION     0.55     1.04     6.81     0  01:35        1.02
  WS02004410           JUNCTION     0.56     1.01     6.73     0  01:35        1.00
  WS02004411           JUNCTION     0.58     0.97     6.65     0  01:35        0.97
  WS02004412           JUNCTION     0.59     0.94     6.58     0  01:35        0.93
  WS02004413           JUNCTION     0.74     1.05     6.52     0  01:35        1.04
  WS02004405           JUNCTION     0.85     1.35     7.20     0  01:32        1.24
  WS02006109           JUNCTION     0.87     1.91     8.52     0  01:33        1.87
  WS02006110           JUNCTION     0.83     1.78     8.37     0  01:32        1.62
  WS02006111           JUNCTION     0.31     1.27     7.98     0  01:32        1.00
  WS02006112           JUNCTION     0.94     1.90     7.78     0  01:32        1.64
  WS02006113           JUNCTION     0.41     1.42     8.31     0  01:32        1.07
  WS02006115           JUNCTION     0.66     1.53     7.67     0  01:32        1.29
  WS02006116           JUNCTION     0.73     1.53     7.57     0  01:32        1.32
  WS02006230           JUNCTION     0.88     2.13     8.88     0  01:33        2.11
  WS02006231           JUNCTION     0.63     1.74     8.86     0  01:33        1.72
  WS02006232           JUNCTION     0.76     1.81     8.85     0  01:34        1.79
  WS02006234           JUNCTION     0.69     1.68     8.84     0  01:34        1.67
  WS02006235           JUNCTION     0.72     1.67     8.84     0  01:34        1.64
  WS02006238           JUNCTION     0.74     1.68     8.83     0  01:34        1.66
  WS02006240           JUNCTION     0.63     1.50     8.79     0  01:33        1.48
  WS02006242           JUNCTION     0.67     1.51     8.77     0  01:34        1.48
  WS02006243           JUNCTION     0.54     1.33     8.75     0  01:34        1.30
  WS02006245           JUNCTION     0.50     1.24     8.73     0  01:34        1.22
  WS02006247           JUNCTION     0.51     1.22     8.72     0  07:02        1.20
  WS02006248           JUNCTION     0.44     1.10     8.69     0  01:32        1.10
  WS02006249           JUNCTION     0.46     1.09     8.69     0  01:32        1.09
  WS02006239           JUNCTION     0.69     1.60     8.81     0  01:34        1.59
  WS02006251           JUNCTION     0.43     1.47     9.14     0  01:32        1.19
  WS02006252           JUNCTION     0.27     0.93     9.17     0  01:32        0.75
  WS02006253           JUNCTION     0.46     1.97     9.62     0  01:32        1.22
  WS02006256           JUNCTION     1.88     2.35     9.28     0  00:18        2.35
  WS02004138           JUNCTION     0.19     0.20     7.45     0  00:00        0.19
  WS02004139           JUNCTION     0.72     0.80     5.71     0  01:46        0.80
  WS02004407           JUNCTION     0.24     0.42     6.74     0  01:35        0.42
  WS02006228           JUNCTION     0.89     2.11     8.76     0  01:33        2.07
  WS02006229           JUNCTION     0.89     2.20     8.90     0  01:33        2.17
  WS02006280           JUNCTION     0.09     0.51     8.78     0  01:33        0.50
  WS02006284           JUNCTION     0.40     0.72     9.12     0  01:34        0.72
  WS02006287           JUNCTION     0.13     0.46     9.42     0  01:34        0.46
  WSF200               JUNCTION     0.24     0.45     5.68     0  01:40        0.45
  HS02004901           JUNCTION     0.15     0.43    10.25     0  01:33        0.43
  HS02004881           JUNCTION     0.01     0.09     9.11     0  01:32        0.06
  HS02004876           JUNCTION     0.06     0.19     9.22     0  01:32        0.19
  HS02004870           JUNCTION     0.02     0.11     9.40     0  01:35        0.11
  HS02004862           JUNCTION     0.03     0.13     9.51     0  01:35        0.13
  HS02004856           JUNCTION     0.09     0.17     9.59     0  01:35        0.17
  HS02004852           JUNCTION     0.02     0.10     9.61     0  01:35        0.10
  HS02004848           JUNCTION     0.02     0.08     9.68     0  01:36        0.08
  HS02004842           JUNCTION     0.34     0.41     9.68     0  01:35        0.41
  HS02004837           JUNCTION     0.04     0.10     9.68     0  01:35        0.10
  HS02004830           JUNCTION     0.05     0.15     9.62     0  01:35        0.15
  HS02004824           JUNCTION     0.04     0.20     9.61     0  01:35        0.20
  HS02004817           JUNCTION     0.47     0.77     9.61     0  01:34        0.76
  HS02004807           JUNCTION     0.16     0.44     9.61     0  01:35        0.44
  HS02004802           JUNCTION     0.19     0.47     9.60     0  01:35        0.47
  HS02004799           JUNCTION     0.16     0.55     9.76     0  01:33        0.55
  HS02004792           JUNCTION     0.06     0.27     9.79     0  01:33        0.27
  HS02004788           JUNCTION     0.04     0.19    10.09     0  01:34        0.19
  HS02004785           JUNCTION     0.07     0.29    10.19     0  01:33        0.29
  HS02004777           JUNCTION     0.17     0.44    10.24     0  01:33        0.44
  HS02004770           JUNCTION     0.15     0.42    10.25     0  01:33        0.42
  HS02004480           JUNCTION     0.12     0.46     9.70     0  01:33        0.46
  HS02004479           JUNCTION     0.15     0.49     9.70     0  01:34        0.49
  HS02004478           JUNCTION     0.09     0.35     9.58     0  01:34        0.35
  YS02001745           JUNCTION     0.82     1.39     8.91     0  01:29        1.05
  YS02001748           JUNCTION     1.22     1.88     8.96     0  01:28        1.47
  YS02001751           JUNCTION     1.40     1.76     8.64     0  01:29        1.64
  YS02001754           JUNCTION     1.65     1.92     8.53     0  01:29        1.89
  YS02001762           JUNCTION     1.85     2.08     8.48     0  02:53        2.07
  YS02001765           JUNCTION     1.80     2.03     8.48     0  02:54        2.02
  YS02001767           JUNCTION     1.76     1.98     8.47     0  02:53        1.97
  YS02001770           JUNCTION     1.75     1.95     8.44     0  02:04        1.95
  YS02001774           JUNCTION     1.81     2.00     8.42     0  02:48        1.99
  YS02001779           JUNCTION     1.55     1.68     8.37     0  01:26        1.68
  YS02001882           JUNCTION     0.78     1.71     8.43     0  01:32        1.64
  YS02001884           JUNCTION     0.88     1.79     8.41     0  01:32        1.74
  YS02001759           JUNCTION     1.88     2.12     8.49     0  02:53        2.11
  YS02001887           JUNCTION     0.96     1.84     8.38     0  01:32        1.82
  YS02001890           JUNCTION     0.98     1.81     8.32     0  01:32        1.81
  YS02001898           JUNCTION     0.75     1.57     8.30     0  01:33        1.56
  YS02001901           JUNCTION     0.86     1.68     8.29     0  01:33        1.67
  YS02001904           JUNCTION     0.84     1.64     8.27     0  01:33        1.63
  YS02001907           JUNCTION     1.17     1.96     8.25     0  01:33        1.96
  YS02001910           JUNCTION     0.96     1.99     8.50     0  01:33        1.85
  YS02001915           JUNCTION     0.77     1.93     8.65     0  01:33        1.72
  YS02001918           JUNCTION     0.50     1.81     8.88     0  01:33        1.50
  YS02001619           JUNCTION     1.34     1.61     8.54     0  01:27        1.51
  YS02001629           JUNCTION     1.69     1.85     8.40     0  01:27        1.85
  YS02001641           JUNCTION     1.78     1.96     8.39     0  01:29        1.93
  YS02001644           JUNCTION     1.79     1.92     8.35     0  01:29        1.92
  YS02001652           JUNCTION     1.66     2.05     8.65     0  01:29        1.87
  YS02001655           JUNCTION     1.42     1.99     8.84     0  01:29        1.63
  YS02001920           JUNCTION     0.61     2.10     9.11     0  01:33        1.61
  YS02001923           JUNCTION     0.42     2.01     9.27     0  01:33        1.39
  YS02001926           JUNCTION     0.44     1.90     9.35     0  01:33        1.23
  YS02001929           JUNCTION     0.28     1.78     9.47     0  01:33        1.02
  YS02001658           JUNCTION     1.15     1.78     8.93     0  01:29        1.43
  YS02001661           JUNCTION     0.92     1.86     9.26     0  01:29        1.31
  YS02001664           JUNCTION     0.43     0.68     8.61     0  01:30        0.68
  YS02001622           JUNCTION     1.36     1.62     8.52     0  01:27        1.52
  YS02001633           JUNCTION     1.78     1.98     8.43     0  01:29        1.95
  YS02001649           JUNCTION     1.85     2.05     8.44     0  01:29        2.05
  YS02001757           JUNCTION     1.98     2.21     8.47     0  02:53        2.21
  YS02001895           JUNCTION     0.74     1.57     8.31     0  01:44        1.56
  YS02001625           JUNCTION     1.64     1.78     8.38     0  01:27        1.78
  YS02163301           JUNCTION     1.72     1.90     8.42     0  01:29        1.89
  YS02163601           JUNCTION     1.83     2.03     8.43     0  01:29        2.00
  YS02164001           JUNCTION     1.77     1.96     8.42     0  01:29        1.93
  YS02001647           JUNCTION     1.63     1.80     8.41     0  01:35        1.79
  YSB1154              JUNCTION     0.29     0.65     9.70     0  01:34        0.65
  YSB6556              JUNCTION     0.19     0.53     9.70     0  01:33        0.53
  YSB1174              JUNCTION     0.24     0.59     9.70     0  01:33        0.59
  YSB1171              JUNCTION     0.44     0.80     9.70     0  01:34        0.80
  YS02006553           JUNCTION     1.17     1.97     8.26     0  01:58        1.97
  YS02006561           JUNCTION     0.48     1.29     7.95     0  01:32        1.08
  YS02006556           JUNCTION     1.13     1.94     8.25     0  01:51        1.93
  YS02006558           JUNCTION     1.17     1.99     8.25     0  01:58        1.98
  YS02001783           JUNCTION     0.73     1.66     7.80     0  01:32        1.47
  YS02001784           JUNCTION     0.73     1.63     7.70     0  01:32        1.42
  YS02001786           JUNCTION     0.65     1.82     7.85     0  01:32        1.27
  YS02001788           JUNCTION     0.56     2.28     8.26     0  01:32        1.13
  YS02001790           JUNCTION     0.69     1.96     7.60     0  05:00        1.29
  YS02001791           JUNCTION     0.65     1.65     7.12     0  05:00        1.27
  YS02001793           JUNCTION     0.91     2.62     7.45     0  04:58        1.80
  WSC                  OUTFALL      0.36     0.49     1.16     0  01:47        0.49
  JK-storage           STORAGE      3.38     5.80     6.60     0  01:32        5.80
  CC-storage           STORAGE      1.23     1.48     8.48     0  03:15        1.48
  XR-storage           STORAGE      7.17     7.72     5.72     0  01:46        7.72
  
  
  *******************
  Node Inflow Summary
  *******************
  
  -------------------------------------------------------------------------------------------------
                                  Maximum  Maximum                  Lateral       Total        Flow
                                  Lateral    Total  Time of Max      Inflow      Inflow     Balance
                                   Inflow   Inflow   Occurrence      Volume      Volume       Error
  Node                 Type           LPS      LPS  days hr:min    10^6 ltr    10^6 ltr     Percent
  -------------------------------------------------------------------------------------------------
  WS02001211           JUNCTION      7.35   391.82     0  03:16       0.207        10.4       0.393
  WS02001212           JUNCTION      0.00   396.15     0  03:16           0        10.3       0.232
  WS02001213           JUNCTION      0.00   400.17     0  03:17           0        10.3       0.290
  WS02003069           JUNCTION      0.32  1371.35     0  01:45     0.00902        21.5       0.175
  WS02003072           JUNCTION      0.00  1371.28     0  01:46           0        21.5       0.207
  WS02003073           JUNCTION      1.82  1373.09     0  01:46      0.0514        21.5       0.242
  WS02003060           JUNCTION     16.53  1371.18     0  01:45       0.466        21.5       0.164
  WS02003066           JUNCTION      0.00   999.98     0  01:35           0        10.8       0.046
  WS02003059           JUNCTION      0.00   405.29     0  03:16           0        10.3       0.404
  WS02003067           JUNCTION      0.00   995.93     0  01:35           0        10.8       0.093
  WS02004401           JUNCTION      0.00  1016.23     0  01:34           0        11.1       0.201
  WS02004402           JUNCTION      0.00  1016.84     0  01:34           0        11.1       0.188
  WS02004403           JUNCTION      0.00  1017.12     0  01:34           0          11       0.171
  WS02004404           JUNCTION      0.16  1018.22     0  01:34     0.00457          11       0.130
  WS02004406           JUNCTION      0.00  1019.75     0  01:34           0          11       0.313
  WS02004409           JUNCTION      0.00  1017.30     0  01:34           0          11       0.167
  WS02004410           JUNCTION      0.00  1008.04     0  01:34           0        10.9       0.188
  WS02004411           JUNCTION      0.00   993.61     0  01:36           0        10.9       0.192
  WS02004412           JUNCTION      0.00   993.94     0  01:36           0        10.9       0.205
  WS02004413           JUNCTION      0.00   995.04     0  01:35           0        10.9       0.299
  WS02004405           JUNCTION      0.04  1019.21     0  01:34     0.00107          11       0.189
  WS02006109           JUNCTION      1.23   978.08     0  01:34      0.0347          11       0.115
  WS02006110           JUNCTION      0.00   977.97     0  01:34           0          11       0.187
  WS02006111           JUNCTION      0.00   977.72     0  01:34           0          11       0.035
  WS02006112           JUNCTION     39.49  1016.19     0  01:34       0.169        11.2       0.276
  WS02006113           JUNCTION      0.00   977.96     0  01:34           0          11       0.092
  WS02006115           JUNCTION      0.00  1015.96     0  01:34           0        11.1       0.194
  WS02006116           JUNCTION      0.00  1015.92     0  01:34           0        11.1       0.165
  WS02006230           JUNCTION     10.28   531.87     0  07:23        0.29        6.61       0.185
  WS02006231           JUNCTION      0.00   521.41     0  07:23           0        6.31       0.140
  WS02006232           JUNCTION      0.00   521.27     0  07:23           0         6.3       0.264
  WS02006234           JUNCTION      0.00   521.41     0  07:22           0        6.28       0.103
  WS02006235           JUNCTION      0.00   522.21     0  07:22           0        6.46       0.165
  WS02006238           JUNCTION      0.00   327.26     0  07:23           0        2.54       0.104
  WS02006240           JUNCTION      0.00   339.76     0  06:42           0        2.49       0.371
  WS02006242           JUNCTION      0.00   346.51     0  06:41           0        2.46       0.501
  WS02006243           JUNCTION      0.00   356.66     0  06:41           0        2.44       0.226
  WS02006245           JUNCTION      0.00   361.70     0  06:41           0        2.43       0.326
  WS02006247           JUNCTION      0.00   366.04     0  06:41           0        2.42       0.129
  WS02006248           JUNCTION      0.00   370.67     0  06:40           0        2.46      -0.020
  WS02006249           JUNCTION      0.00   523.17     0  03:00           0         3.1       0.114
  WS02006239           JUNCTION      0.00   329.59     0  06:42           0        2.52       0.196
  WS02006251           JUNCTION      0.08   519.86     0  03:00     0.00217        3.12      -0.035
  WS02006252           JUNCTION      0.00   400.00     0  02:30           0        2.16       0.004
  WS02006253           JUNCTION      5.06   279.82     0  01:31      0.0186       0.952      -0.098
  WS02006256           JUNCTION      0.00   983.00     0  01:40           0        14.3       0.010
  WS02004138           JUNCTION      0.00   380.00     0  00:00           0        10.2       0.066
  WS02004139           JUNCTION      0.32   394.45     0  00:00     0.00905        10.2       0.450
  WS02004407           JUNCTION      0.00  1020.03     0  01:34           0          11       0.072
  WS02006228           JUNCTION      0.00   977.08     0  01:34           0          11       0.101
  WS02006229           JUNCTION      0.00  1053.74     0  01:32           0        11.1       0.131
  WS02006280           JUNCTION      0.00   937.46     0  01:34           0        4.56       0.012
  WS02006284           JUNCTION      0.10   934.65     0  01:35      0.0027        4.56       0.018
  WS02006287           JUNCTION      0.00   934.64     0  01:35           0        4.56       0.019
  WSF200               JUNCTION      0.00  1001.09     0  01:36           0        10.8       0.043
  HS02004901           JUNCTION     48.29    48.29     0  01:31       0.205       0.205       0.867
  HS02004881           JUNCTION     19.22   195.84     0  01:33      0.0766       0.897       0.056
  HS02004876           JUNCTION     33.98   176.89     0  01:34       0.149       0.821       0.068
  HS02004870           JUNCTION     35.26   143.33     0  01:34       0.145       0.672       0.017
  HS02004862           JUNCTION     32.69   109.55     0  01:35       0.175       0.527       0.034
  HS02004856           JUNCTION     26.33    76.92     0  01:35       0.109       0.354       0.408
  HS02004852           JUNCTION      0.00    51.63     0  01:36           0       0.245       0.025
  HS02004848           JUNCTION     70.76    70.76     0  01:38         0.4         0.4       0.013
  HS02004842           JUNCTION      0.00    21.86     0  01:49           0       0.168       8.373
  HS02004837           JUNCTION     65.09    82.02     0  01:35       0.431       0.586       0.138
  HS02004830           JUNCTION      0.15    82.12     0  01:35     0.00423       0.576       0.215
  HS02004824           JUNCTION     81.60   164.05     0  01:38       0.463        1.04       0.053
  HS02004817           JUNCTION      0.60   166.59     0  01:39      0.0169        1.05       1.606
  HS02004807           JUNCTION     65.28   225.43     0  01:36       0.265         1.3       0.342
  HS02004802           JUNCTION      0.00   226.44     0  01:37           0         1.3       0.297
  HS02004799           JUNCTION     51.81   605.47     0  01:33       0.216        2.82       0.117
  HS02004792           JUNCTION    235.75   554.35     0  01:33        1.13        2.61       0.015
  HS02004788           JUNCTION     75.68   319.93     0  01:33       0.386        1.48       0.026
  HS02004785           JUNCTION      0.15   244.47     0  01:33     0.00423         1.1       0.047
  HS02004777           JUNCTION      0.03   244.66     0  01:32    0.000846         1.1       0.479
  HS02004770           JUNCTION    197.86   245.54     0  01:32       0.896         1.1       0.279
  HS02004480           JUNCTION      0.00   713.04     0  01:33           0        3.27       0.024
  HS02004479           JUNCTION      0.00   107.71     0  01:33           0       0.464       0.161
  HS02004478           JUNCTION      0.00   934.57     0  01:35           0        4.56       0.007
  YS02001745           JUNCTION    667.30   667.30     0  03:01        5.93        5.93       0.199
  YS02001748           JUNCTION      0.04   668.09     0  03:01     0.00127        5.92       0.380
  YS02001751           JUNCTION      0.01   668.45     0  03:01     0.00031         5.9       0.411
  YS02001754           JUNCTION      0.26   669.35     0  03:01     0.00733        5.88       0.413
  YS02001762           JUNCTION      0.00   370.09     0  01:35           0        3.23       0.662
  YS02001765           JUNCTION      0.00   370.33     0  01:35           0        3.23       0.754
  YS02001767           JUNCTION      0.54   370.77     0  01:35      0.0151        3.25       1.109
  YS02001770           JUNCTION    751.30  1114.08     0  03:01        6.45        8.59       0.364
  YS02001774           JUNCTION      0.00   851.68     0  02:54           0         7.1       0.353
  YS02001779           JUNCTION      0.01   851.78     0  02:54    0.000141        7.07       0.220
  YS02001882           JUNCTION      0.00    39.35     0  01:30           0      0.0396       6.835
  YS02001884           JUNCTION      0.00    58.94     0  01:29           0      0.0796       8.932
  YS02001759           JUNCTION    717.99   896.70     0  01:42        6.03        7.09       0.319
  YS02001887           JUNCTION    814.61   815.38     0  01:57        6.69        6.73       0.128
  YS02001890           JUNCTION      0.00   816.19     0  01:57           0        6.67       0.146
  YS02001898           JUNCTION      0.00   598.26     0  01:32           0        5.39       0.047
  YS02001901           JUNCTION      0.00   602.78     0  01:32           0        5.39       0.143
  YS02001904           JUNCTION      0.00   603.97     0  01:32           0        5.38       0.124
  YS02001907           JUNCTION      0.00  1427.95     0  03:01           0          14       0.171
  YS02001910           JUNCTION      0.00   911.28     0  03:01           0         8.6       0.137
  YS02001915           JUNCTION    557.90   911.14     0  03:01        4.87        8.65       0.078
  YS02001918           JUNCTION      0.00   431.26     0  01:32           0        3.81       0.043
  YS02001619           JUNCTION    574.80   574.80     0  03:01        5.02        5.02       0.236
  YS02001629           JUNCTION      0.00   278.50     0  01:26           0        2.09       1.360
  YS02001641           JUNCTION      0.00   457.15     0  01:28           0        6.13       0.340
  YS02001644           JUNCTION    644.82  1924.53     0  03:01        5.75        20.7       0.128
  YS02001652           JUNCTION      0.00   639.58     0  03:01           0        5.21       0.438
  YS02001655           JUNCTION      0.15   639.38     0  03:01     0.00434        5.23       0.482
  YS02001920           JUNCTION      2.87   418.14     0  01:32      0.0809        3.79       0.089
  YS02001923           JUNCTION      0.04   403.06     0  01:33     0.00106        3.69       0.047
  YS02001926           JUNCTION      0.05   474.27     0  01:33     0.00147        3.66       0.070
  YS02001929           JUNCTION    352.81   352.81     0  03:01        3.64        3.65       0.009
  YS02001658           JUNCTION      0.00   638.99     0  03:01           0        5.25       0.471
  YS02001661           JUNCTION      0.00   794.56     0  01:40           0        5.39       0.102
  YS02001664           JUNCTION    638.31   638.31     0  03:01        5.26        5.39       0.108
  YS02001622           JUNCTION      0.00   574.91     0  03:01           0        5.01       0.635
  YS02001633           JUNCTION    658.84   658.84     0  03:01        5.91        7.08       0.451
  YS02001649           JUNCTION      0.00  1444.20     0  03:00           0        12.1       0.302
  YS02001757           JUNCTION      0.00  2183.08     0  01:41           0        12.6       0.731
  YS02001895           JUNCTION      0.00   594.51     0  01:32           0        5.39       0.121
  YS02001625           JUNCTION      0.00   801.84     0  03:01           0        5.86       0.684
  YS02163301           JUNCTION      0.00   281.04     0  01:26           0        2.09       1.161
  YS02163601           JUNCTION      0.11   457.93     0  01:28      0.0031        6.14       0.490
  YS02164001           JUNCTION      0.00   456.91     0  01:28           0        6.13       0.329
  YS02001647           JUNCTION      0.00   846.70     0  02:53           0         9.6       0.296
  YSB1154              JUNCTION     59.56    59.56     0  01:33        0.26        0.26       0.556
  YSB6556              JUNCTION      0.00    59.43     0  01:33           0       0.261       0.488
  YSB1174              JUNCTION     51.10    51.10     0  01:30       0.195       0.195       0.658
  YSB1171              JUNCTION      0.00   108.25     0  01:32           0       0.462       1.395
  YS02006553           JUNCTION      0.00   731.63     0  04:02           0        7.59       0.204
  YS02006561           JUNCTION      0.00  1061.67     0  01:32           0        13.8       0.007
  YS02006556           JUNCTION      0.00   732.23     0  04:02           0        7.59       0.146
  YS02006558           JUNCTION    751.16  1059.54     0  01:32        6.28        13.8       0.036
  YS02001783           JUNCTION      0.00  1025.21     0  01:31           0        13.8       0.018
  YS02001784           JUNCTION      1.06  1027.08     0  01:31      0.0299        13.8       0.029
  YS02001786           JUNCTION      0.06  1027.02     0  01:31     0.00159        13.8       0.027
  YS02001788           JUNCTION      0.07  1009.60     0  01:31       0.002        13.8       0.016
  YS02001790           JUNCTION      0.15   984.21     0  01:50     0.00437        13.8       0.016
  YS02001791           JUNCTION      0.00   984.07     0  02:01           0        13.8       0.008
  YS02001793           JUNCTION      0.00   984.51     0  01:50           0        13.8      -0.021
  WSC                  OUTFALL       0.00  1373.04     0  01:47           0        21.4       0.000
  JK-storage           STORAGE       0.00  1029.56     0  01:30           0          14      -7.512
  CC-storage           STORAGE       0.00  2183.40     0  01:41           0        6.31       1.046
  XR-storage           STORAGE    1680.85  1680.85     0  03:01        21.3        21.9      -0.001
  
  
  **********************
  Node Surcharge Summary
  **********************
  
  Surcharging occurs when water rises above the top of the highest conduit.
  ---------------------------------------------------------------------
                                               Max. Height   Min. Depth
                                   Hours       Above Crown    Below Rim
  Node                 Type      Surcharged         Meters       Meters
  ---------------------------------------------------------------------
  WS02004401           JUNCTION        1.72          0.457        1.203
  WS02004402           JUNCTION        1.73          0.406        1.334
  WS02004403           JUNCTION        1.74          0.359        1.671
  WS02004404           JUNCTION        1.83          0.387        2.393
  WS02004406           JUNCTION        1.79          0.249        2.201
  WS02004409           JUNCTION        0.13          0.044        2.316
  WS02004410           JUNCTION        0.01          0.007        2.533
  WS02004413           JUNCTION        0.82          0.048        2.152
  WS02004405           JUNCTION        1.81          0.352        2.448
  WS02006109           JUNCTION        3.20          1.087        0.733
  WS02006110           JUNCTION        2.03          0.870        0.980
  WS02006111           JUNCTION        0.65          0.464        1.406
  WS02006112           JUNCTION        2.17          0.897        0.783
  WS02006113           JUNCTION        0.71          0.617        1.313
  WS02006115           JUNCTION        1.67          0.518        1.732
  WS02006116           JUNCTION        1.68          0.468        1.822
  WS02006230           JUNCTION        1.88          1.051        0.519
  WS02006231           JUNCTION        2.07          1.030        0.500
  WS02006232           JUNCTION        3.13          1.109        0.371
  WS02006234           JUNCTION        2.38          0.959        0.281
  WS02006235           JUNCTION        2.59          0.962        0.328
  WS02006238           JUNCTION        2.75          0.962        0.468
  WS02006240           JUNCTION        2.23          0.792        0.598
  WS02006242           JUNCTION        2.26          0.775        0.045
  WS02006243           JUNCTION        2.04          0.621        0.149
  WS02006245           JUNCTION        1.97          0.531        0.319
  WS02006247           JUNCTION        1.96          0.505        0.255
  WS02006248           JUNCTION        1.86          0.380        0.000
  WS02006249           JUNCTION        1.89          0.390        0.000
  WS02006239           JUNCTION        2.33          0.859        0.431
  WS02006251           JUNCTION        1.13          0.436        0.744
  WS02006252           JUNCTION        1.87          0.530        0.570
  WS02006253           JUNCTION        1.39          0.931        1.549
  WS02006256           JUNCTION        7.11          2.050        0.000
  WS02006228           JUNCTION        3.13          1.277        0.923
  WS02006229           JUNCTION        0.01          0.022        1.048
  HS02004817           JUNCTION        0.46          0.066        1.674
  YS02001745           JUNCTION        1.11          0.394        0.956
  YS02001748           JUNCTION        6.35          0.801        0.389
  YS02001751           JUNCTION        6.36          0.756        0.444
  YS02001754           JUNCTION        6.38          0.870        0.280
  YS02001762           JUNCTION        6.40          1.081        0.069
  YS02001765           JUNCTION        6.40          1.027        0.073
  YS02001767           JUNCTION        6.39          0.977        0.053
  YS02001770           JUNCTION        6.39          0.920        0.000
  YS02001774           JUNCTION        6.40          1.002        0.048
  YS02001779           JUNCTION        6.37          0.680        0.000
  YS02001882           JUNCTION        2.55          0.710        0.120
  YS02001884           JUNCTION        2.56          0.732        0.138
  YS02001759           JUNCTION        6.41          1.123        0.087
  YS02001887           JUNCTION        2.62          0.789        0.161
  YS02001890           JUNCTION        2.64          0.760        0.000
  YS02001898           JUNCTION        2.52          0.539        0.201
  YS02001901           JUNCTION        2.59          0.684        0.186
  YS02001904           JUNCTION        2.58          0.642        0.208
  YS02001907           JUNCTION        3.14          0.950        0.000
  YS02001910           JUNCTION        2.68          0.991        0.109
  YS02001915           JUNCTION        2.54          0.928        0.072
  YS02001918           JUNCTION        2.40          0.810        0.000
  YS02001619           JUNCTION        6.37          0.610        0.000
  YS02001629           JUNCTION        6.37          0.470        0.000
  YS02001641           JUNCTION        6.40          0.956        0.144
  YS02001644           JUNCTION        6.40          0.920        0.000
  YS02001652           JUNCTION        6.38          1.021        0.109
  YS02001655           JUNCTION        6.37          0.986        0.214
  YS02001920           JUNCTION        2.42          1.101        0.039
  YS02001923           JUNCTION        0.01          0.800        0.020
  YS02001926           JUNCTION        0.01          0.900        0.000
  YS02001929           JUNCTION        0.01          0.780        0.000
  YS02001658           JUNCTION        6.35          0.784        0.516
  YS02001661           JUNCTION        1.46          0.789        0.601
  YS02001622           JUNCTION        6.37          0.620        0.000
  YS02001633           JUNCTION        6.40          0.960        0.100
  YS02001649           JUNCTION        6.40          1.050        0.000
  YS02001757           JUNCTION        6.42          1.210        0.000
  YS02001895           JUNCTION        2.53          0.567        0.183
  YS02001625           JUNCTION        6.38          0.780        0.000
  YS02163301           JUNCTION        6.39          0.902        0.128
  YS02163601           JUNCTION        6.40          1.035        0.045
  YS02164001           JUNCTION        6.40          0.963        0.137
  YS02001647           JUNCTION        6.38          0.798        0.102
  YS02006553           JUNCTION        3.19          0.974        0.216
  YS02006561           JUNCTION        2.43          0.492        0.658
  YS02006556           JUNCTION        2.84          0.900        0.450
  YS02006558           JUNCTION        2.82          0.888        0.512
  YS02001783           JUNCTION        2.64          0.864        0.736
  YS02001784           JUNCTION        2.61          0.835        0.655
  YS02001786           JUNCTION        2.53          1.019        0.411
  YS02001788           JUNCTION        2.47          1.480        0.000
  YS02001790           JUNCTION        3.27          1.157        0.000
  YS02001791           JUNCTION        3.35          0.849        1.071
  YS02001793           JUNCTION        3.58          1.618        0.982
  
  
  *********************
  Node Flooding Summary
  *********************
  
  Flooding refers to all water that overflows a node, whether it ponds or not.
  --------------------------------------------------------------------------
                                                             Total   Maximum
                                 Maximum   Time of Max       Flood    Ponded
                        Hours       Rate    Occurrence      Volume     Depth
  Node                 Flooded       LPS   days hr:min    10^6 ltr    Meters
  --------------------------------------------------------------------------
  WS02006248              0.43    152.10      0  01:38       0.139     0.000
  WS02006249              1.33    383.81      0  03:00       0.741     0.000
  WS02006256              5.02    834.99      0  01:40      10.259     0.000
  YS02001770              1.16    262.82      0  03:01       0.375     0.000
  YS02001779              4.54    851.48      0  02:54       7.050     0.000
  YS02001890              1.74    299.15      0  01:57       1.275     0.000
  YS02001907              2.27   1197.51      0  03:01       6.359     0.000
  YS02001918              0.01     83.85      0  01:33       0.000     0.000
  YS02001619              0.01    104.08      0  01:27       0.000     0.000
  YS02001629              0.01    239.92      0  01:27       0.002     0.000
  YS02001644              6.07   1924.45      0  03:01      19.850     0.000
  YS02001926              0.01     12.28      0  01:33       0.000     0.000
  YS02001929              0.01    264.54      0  01:33       0.001     0.000
  YS02001622              0.01     87.91      0  01:27       0.000     0.000
  YS02001649              1.42    597.43      0  03:00       1.646     0.000
  YS02001757              0.13     48.90      0  02:57       0.013     0.000
  YS02001625              2.99    801.74      0  03:01       4.635     0.000
  YS02001788              0.01    132.60      0  01:32       0.000     0.000
  YS02001790              0.01    131.65      0  05:00       0.000     0.000
  JK-storage              0.70    695.92      0  01:32       0.761     0.000
  XR-storage              6.06   1300.78      0  03:01      10.798     0.000
  
  
  **********************
  Storage Volume Summary
  **********************
  
  --------------------------------------------------------------------------------------------------
                         Average     Avg  Evap Exfil       Maximum     Max    Time of Max    Maximum
                          Volume    Pcnt  Pcnt  Pcnt        Volume    Pcnt     Occurrence    Outflow
  Storage Unit           1000 m3    Full  Loss  Loss       1000 m3    Full    days hr:min        LPS
  --------------------------------------------------------------------------------------------------
  JK-storage               0.170      58     0     0         0.291     100       0  01:32     983.00
  CC-storage               3.423      22     0     0         4.117      26       0  03:15     400.00
  XR-storage               0.860      93     0     0         0.926     100       0  01:46     380.00
  
  
  ***********************
  Outfall Loading Summary
  ***********************
  
  ---------------------------------------------------------------------------------------------------------------------------------
                         Flow       Avg       Max       Total         Total         Total         Total         Total         Total
                         Freq      Flow      Flow      Volume           COD            SS            TN            TP         NH4-N
  Outfall Node           Pcnt       LPS       LPS    10^6 ltr            kg            kg            kg            kg            kg
  ---------------------------------------------------------------------------------------------------------------------------------
  WSC                   99.99    801.15   1373.04      21.410      2673.197      4892.307       130.975        14.569        76.886
  ---------------------------------------------------------------------------------------------------------------------------------
  System                99.99    801.15   1373.04      21.410      2673.197      4892.307       130.975        14.569        76.886
  
  
  ********************
  Link Flow Summary
  ********************
  
  -----------------------------------------------------------------------------
                                 Maximum  Time of Max   Maximum    Max/    Max/
                                  |Flow|   Occurrence   |Veloc|    Full    Full
  Link                 Type          LPS  days hr:min     m/sec    Flow   Depth
  -----------------------------------------------------------------------------
  WS02003066WSF200     CONDUIT   1001.09     0  01:36      3.24    0.17    0.33
  WS02006287WS02006284 CONDUIT    934.56     0  01:35      2.63    0.43    0.46
  WS02006284WS02006280 CONDUIT    937.46     0  01:34      2.86    0.39    0.44
  WS02006280WS02006229 CONDUIT    964.76     0  01:34      4.53    0.21    0.75
  WS02006229WS02006228 CONDUIT    977.08     0  01:34      1.94    3.24    1.00
  WS02006256WS02006235 CONDUIT    261.46     0  05:22      3.70    2.77    1.00
  WS02006253WS02006251 CONDUIT    276.09     0  01:32      0.83    0.83    1.00
  WS02006252WS02006251 CONDUIT    400.22     0  02:30      3.18    1.47    1.00
  WS02006251WS02006249 CONDUIT    523.17     0  03:00      1.36    1.51    1.00
  WS02006249WS02006248 CONDUIT    370.67     0  06:40      1.19    2.03    1.00
  WS02006248WS02006247 CONDUIT    366.04     0  06:41      1.17    0.80    1.00
  WS02006247WS02006245 CONDUIT    361.70     0  06:41      1.15    2.87    1.00
  WS02006245WS02006243 CONDUIT    356.66     0  06:41      1.20    1.05    1.00
  WS02006243WS02006242 CONDUIT    346.51     0  06:41      1.08    0.74    1.00
  WS02006242WS02006240 CONDUIT    339.76     0  06:42      1.02    1.35    1.00
  WS02006240WS02006239 CONDUIT    329.59     0  06:42      1.10    1.04    1.00
  WS02006239WS02006238 CONDUIT    327.26     0  07:23      1.00    1.05    1.00
  WS02006238WS02006235 CONDUIT    327.56     0  07:23      0.99    0.73    1.00
  WS02006235WS02006234 CONDUIT    521.41     0  07:22      1.35    5.50    1.00
  WS02006234WS02006232 CONDUIT    521.27     0  07:23      1.35    1.05    1.00
  WS02006232WS02006231 CONDUIT    521.41     0  07:23      1.35    1.09    1.00
  WS02006231WS02006230 CONDUIT    521.59     0  07:23      1.36    7.91    1.00
  WS02006230WS02006229 CONDUIT    533.23     0  07:23      1.39   11.87    1.00
  WS02006228WS02006109 CONDUIT    976.85     0  01:34      1.94    4.27    1.00
  WS02006116WS02004401 CONDUIT   1016.23     0  01:34      1.29    1.40    1.00
  WS02006115WS02006116 CONDUIT   1015.92     0  01:34      1.29    1.30    1.00
  WS02006113WS02006111 CONDUIT    977.72     0  01:34      2.66    1.17    1.00
  WS02006112WS02006115 CONDUIT   1015.96     0  01:34      1.29    0.60    1.00
  WS02006111WS02006112 CONDUIT    977.57     0  01:34      1.94    0.46    1.00
  WS02006110WS02006113 CONDUIT    977.96     0  01:34      1.95    0.89    1.00
  WS02006109WS02006110 CONDUIT    977.97     0  01:34      1.95    1.88    1.00
  WS02004411WS02004412 CONDUIT    993.94     0  01:36      1.29    1.41    0.96
  WS02004401WS02004402 CONDUIT   1016.84     0  01:34      1.29    1.22    1.00
  WS02004413WS02003067 CONDUIT    995.93     0  01:35      1.63    0.43    0.73
  WS02004412WS02004413 CONDUIT    995.04     0  01:35      1.28    0.67    0.97
  WS02004410WS02004411 CONDUIT    993.61     0  01:36      1.27    1.36    0.99
  WS02004409WS02004410 CONDUIT   1008.04     0  01:34      1.28    1.30    1.00
  WS02004407WS02004409 CONDUIT   1017.30     0  01:34      1.85    0.36    0.71
  WS02004406WS02004407 CONDUIT   1020.03     0  01:34      1.72    0.46    0.71
  WS02004405WS02004406 CONDUIT   1019.75     0  01:34      1.30    2.01    1.00
  WS02004404WS02004405 CONDUIT   1019.17     0  01:34      1.30    9.99    1.00
  WS02004403WS02004404 CONDUIT   1018.06     0  01:34      1.30    0.74    1.00
  WS02004402WS02004403 CONDUIT   1017.12     0  01:34      1.30    1.46    1.00
  WS02004139WS02001211 CONDUIT    384.47     0  03:16      0.90    0.49    0.65
  WS02004138WS02004139 CONDUIT    394.13     0  00:00      3.62    0.08    0.47
  WS02003067WS02003066 CONDUIT    999.98     0  01:35      1.72    0.32    0.51
  WS02001213WS02003059 CONDUIT    405.29     0  03:16      0.89    0.67    0.88
  WS02001212WS02001213 CONDUIT    400.17     0  03:17      1.32    0.62    0.57
  WS02001211WS02001212 CONDUIT    396.15     0  03:16      0.78    0.30    0.72
  WS02003072WS02003073 CONDUIT   1371.27     0  01:46      1.98    2.96    0.59
  WS02003069WS02003072 CONDUIT   1371.28     0  01:46      1.84    0.66    0.63
  WS02003060WS02003069 CONDUIT   1371.03     0  01:45      2.04    0.54    0.57
  WS02003059WS02003060 CONDUIT    411.61     0  03:16      0.95    0.27    0.78
  HS02004901HS02004770 CONDUIT     47.75     0  01:32      0.11    0.18    0.61
  HS02004876HS02004881 CONDUIT    177.06     0  01:33      1.41    1.88    0.19
  HS02004870HS02004876 CONDUIT    143.30     0  01:35      0.95    0.10    0.22
  HS02004842HS02004848 CONDUIT     21.86     0  01:49      0.09    0.01    0.35
  HS02004837HS02004842 CONDUIT     22.38     0  01:49      0.42    0.01    0.37
  HS02004830HS02004837 CONDUIT     81.97     0  01:35      0.70    0.08    0.18
  HS02004824HS02004830 CONDUIT     82.88     0  01:37      0.63    0.11    0.25
  HS02004817HS02004824 CONDUIT    165.99     0  01:39      0.37    0.07    0.64
  HS02004770HS02004777 CONDUIT    244.63     0  01:32      0.57    0.45    0.62
  HS02004799HS02004480 CONDUIT    605.42     0  01:33      1.21    0.76    0.71
  HS02004792HS02004799 CONDUIT    554.25     0  01:33      1.36    0.34    0.58
  HS02004788HS02004792 CONDUIT    319.85     0  01:34      1.40    0.21    0.33
  HS02004785HS02004788 CONDUIT    244.45     0  01:33      1.02    1.84    0.34
  HS02004777HS02004785 CONDUIT    244.32     0  01:33      0.67    0.30    0.52
  HS02004480HS02004478 CONDUIT    712.98     0  01:33      1.74    3.00    0.59
  HS02004479HS02004480 CONDUIT    107.65     0  01:33      0.45    0.10    0.68
  HS02004862HS02004870 CONDUIT    109.57     0  01:36      0.90    0.12    0.17
  HS02004848HS02004852 CONDUIT     51.63     0  01:36      0.58    0.06    0.13
  HS02004856HS02004862 CONDUIT     76.86     0  01:35      0.67    0.08    0.16
  HS02004852HS02004856 CONDUIT     51.73     0  01:36      0.39    0.06    0.19
  HS02004802HS02004478 CONDUIT    227.64     0  01:38      0.57    0.20    0.58
  HS02004478WS02006287 CONDUIT    934.64     0  01:35      2.37    0.26    0.44
  HS02004817HS02004807 CONDUIT    166.69     0  01:39      0.30    0.10    0.81
  HS02004807HS02004802 CONDUIT    226.44     0  01:37      0.51    0.43    0.64
  YS02001759YS02001757 CONDUIT    897.31     0  01:42      1.14    0.64    1.00
  YS02001762YS02001759 CONDUIT    369.37     0  01:35      0.47    0.43    1.00
  YS02001765YS02001762 CONDUIT    370.09     0  01:35      0.47    0.35    1.00
  YS02001770YS02001767 CONDUIT    370.24     0  01:35      0.50    1.47    1.00
  YS02001774YS02001770 CONDUIT    851.68     0  02:54      1.08    0.54    1.00
  YS02001779YS02001774 CONDUIT    851.77     0  02:54      1.08    0.43    1.00
  YS02001649YS02001757 CONDUIT    885.83     0  01:38      1.13    0.54    1.00
  YS02001767YS02001765 CONDUIT    370.33     0  01:35      0.48    0.47    1.00
  YS02006561YS02001783 CONDUIT   1025.21     0  01:31      2.27    0.53    1.00
  YS02001783YS02001784 CONDUIT   1026.02     0  01:31      2.04    1.41    1.00
  YS02001784YS02001785 CONDUIT   1026.96     0  01:31      2.08    2.39    1.00
  YS02001788YS02001790 CONDUIT    984.05     0  01:50      2.45    0.73    1.00
  YS02001790YS02001791 CONDUIT    984.07     0  02:01      2.98    1.07    1.00
  YS02001791YS02001793 CONDUIT    984.51     0  01:50      5.83    0.42    1.00
  YS02001910YS02001907 CONDUIT    911.56     0  03:01      1.16    0.51    1.00
  YS02001786YS02001788 CONDUIT   1009.53     0  01:31      2.31    1.95    1.00
  YS02001915YS02001910 CONDUIT    911.28     0  03:01      1.16    0.45    1.00
  YS02001918YS02001915 CONDUIT    431.26     0  01:32      0.57    0.24    1.00
  YS02001923YS02001920 CONDUIT    403.02     0  01:33      0.91    0.18    1.00
  YS02001926YS02001923 CONDUIT    474.22     0  01:33      1.00    0.68    1.00
  YS02001929YS02001926 CONDUIT    352.26     0  03:01      1.07    0.17    1.00
  YS02001920YS02001918 CONDUIT    415.27     0  01:32      0.85    0.40    1.00
  YS02001629YS02163301 CONDUIT    278.50     0  01:26      0.35    0.34    1.00
  YS02001619YS02001622 CONDUIT    574.91     0  03:01      0.86    0.85    1.00
  YS02001622YS02001625 CONDUIT    575.21     0  03:01      0.73    0.31    1.00
  YS02001625YS02001629 CONDUIT    261.06     0  01:26      0.40    0.12    1.00
  YS02163301YS02001633 CONDUIT    281.04     0  01:26      0.36    0.26    1.00
  YS02163601YS02164001 CONDUIT    456.91     0  01:28      0.58    0.40    1.00
  YS02164001YS02001641 CONDUIT    457.15     0  01:28      0.58    0.62    1.00
  YS02001641YS02001644 CONDUIT    458.58     0  01:28      0.58    1.48    1.00
  YS02001647YS02001649 CONDUIT    846.70     0  02:53      1.08    0.45    1.00
  YS02006553YS02006556 CONDUIT    732.23     0  04:02      0.93    0.63    1.00
  YS02006556YS02006558 CONDUIT    733.01     0  04:02      0.93    0.58    1.00
  YSB6556YSB1171       CONDUIT     59.52     0  01:34      0.17    0.06    0.88
  YS02001907YS02006553 CONDUIT    731.63     0  04:02      0.81    0.86    1.00
  YS02006558YS02006561 CONDUIT   1061.67     0  01:32      3.77    2.35    1.00
  YS02001633YS02163601 CONDUIT    457.82     0  01:28      0.58    0.48    1.00
  YS02001644YS02001647 CONDUIT    846.70     0  02:53      1.08    0.50    1.00
  YS02001745YS02001748 CONDUIT    668.05     0  03:01      1.86    0.26    1.00
  YS02001748YS02001751 CONDUIT    668.44     0  03:01      1.39    0.34    1.00
  YS02001751YS02001754 CONDUIT    669.09     0  03:01      1.15    0.32    1.00
  YS02001754YS02001757 CONDUIT    669.87     0  03:01      0.85    0.27    1.00
  YS02001882YS02001884 CONDUIT     39.35     0  01:30      0.22    0.05    1.00
  YS02001884YS02001887 CONDUIT     58.94     0  01:29      0.16    0.08    1.00
  YS02001890YS02001895 CONDUIT    594.51     0  01:32      0.76    0.28    1.00
  YS02001895YS02001898 CONDUIT    598.26     0  01:32      0.76    1.04    1.00
  YS02001898YS02001901 CONDUIT    602.78     0  01:32      0.77    0.39    1.00
  YS02001901YS02001904 CONDUIT    603.97     0  01:32      0.77    0.94    1.00
  YS02001904YS02001907 CONDUIT    605.56     0  01:32      0.77    0.21    1.00
  YS02001887YS02001890 CONDUIT    816.19     0  01:57      1.04    1.40    1.00
  YS02001652YS02001649 CONDUIT    639.69     0  03:01      0.84    0.32    1.00
  YS02001655YS02001652 CONDUIT    639.58     0  03:01      1.25    0.31    1.00
  YS02001658YS02001655 CONDUIT    639.23     0  03:01      1.61    0.27    1.00
  YS02001661YS02001658 CONDUIT    638.99     0  03:01      1.99    0.25    1.00
  YS02001664YS02001661 CONDUIT    794.56     0  01:40      1.90    0.25    0.84
  YSB1154YSB6556       CONDUIT     59.43     0  01:33      0.17    0.11    0.84
  YSB1174YSB1171       CONDUIT     50.31     0  01:30      0.14    0.08    0.92
  YSB1171HS02004479    CONDUIT    107.71     0  01:33      0.54    0.07    0.78
  HS02004881HS02006253 CONDUIT    272.50     0  01:32      2.77    0.05    0.56
  YS02001793JiankangQianchi CONDUIT   1029.56     0  01:30     16.50    0.08    1.00
  YS02001757CaochengTiaoxuchi CONDUIT   2183.40     0  01:41      3.80    0.96    1.00
  WSF200WS02003060     CONDUIT   1003.84     0  01:36      2.37    0.22    0.45
  1                    CONDUIT   1373.04     0  01:47      3.61    0.48    0.49
  CC-Pump-1            PUMP       200.00     0  02:20              1.00
  CC-Pump-2            PUMP       200.00     0  02:30              1.00
  JK-Pump-1            PUMP       300.00     0  01:40              1.00
  JK-Pump-2            PUMP       683.00     0  01:40              1.00
  XR-Pump-1            PUMP        95.00     0  00:00              1.00
  XR-Pump-2            PUMP        95.00     0  00:00              1.00
  XR-Pump-3            PUMP        95.00     0  00:00              1.00
  XR-Pump-4            PUMP        95.00     0  00:00              1.00
  
  
  ***************************
  Flow Classification Summary
  ***************************
  
  -------------------------------------------------------------------------------------
                      Adjusted    ---------- Fraction of Time in Flow Class ---------- 
                       /Actual         Up    Down  Sub   Sup   Up    Down  Norm  Inlet 
  Conduit               Length    Dry  Dry   Dry   Crit  Crit  Crit  Crit  Ltd   Ctrl  
  -------------------------------------------------------------------------------------
  WS02003066WSF200        1.00   0.01  0.03  0.00  0.00  0.96  0.00  0.00  0.59  0.00
  WS02006287WS02006284    1.00   0.04  0.01  0.00  0.58  0.37  0.00  0.00  0.61  0.00
  WS02006284WS02006280    1.00   0.05  0.00  0.00  0.00  0.00  0.00  0.95  0.00  0.00
  WS02006280WS02006229    1.00   0.05  0.00  0.00  0.06  0.13  0.00  0.77  0.06  0.00
  WS02006229WS02006228    1.00   0.00  0.00  0.00  1.00  0.00  0.00  0.00  0.00  0.00
  WS02006256WS02006235    1.00   0.01  0.00  0.00  0.99  0.00  0.00  0.00  0.00  0.00
  WS02006253WS02006251    1.00   0.02  0.02  0.00  0.95  0.00  0.01  0.00  0.00  0.00
  WS02006252WS02006251    1.00   0.09  0.02  0.00  0.19  0.00  0.71  0.00  0.00  0.00
  WS02006251WS02006249    1.00   0.00  0.00  0.00  1.00  0.00  0.00  0.00  0.30  0.00
  WS02006249WS02006248    1.00   0.00  0.01  0.00  0.90  0.00  0.10  0.00  0.00  0.00
  WS02006248WS02006247    1.00   0.01  0.00  0.00  0.98  0.00  0.00  0.01  0.12  0.00
  WS02006247WS02006245    1.00   0.01  0.00  0.00  0.97  0.00  0.00  0.02  0.00  0.00
  WS02006245WS02006243    1.00   0.01  0.00  0.00  0.95  0.00  0.00  0.04  0.01  0.00
  WS02006243WS02006242    1.00   0.01  0.00  0.00  0.98  0.00  0.00  0.01  0.17  0.00
  WS02006242WS02006240    1.00   0.01  0.00  0.00  0.97  0.00  0.02  0.00  0.00  0.00
  WS02006240WS02006239    1.00   0.01  0.00  0.00  0.93  0.00  0.00  0.07  0.02  0.00
  WS02006239WS02006238    1.00   0.01  0.00  0.00  0.99  0.00  0.00  0.00  0.06  0.00
  WS02006238WS02006235    1.00   0.01  0.00  0.00  0.99  0.00  0.00  0.00  0.00  0.00
  WS02006235WS02006234    1.00   0.01  0.00  0.00  0.97  0.00  0.03  0.00  0.00  0.00
  WS02006234WS02006232    1.00   0.01  0.00  0.00  0.99  0.00  0.00  0.00  0.01  0.00
  WS02006232WS02006231    1.00   0.01  0.00  0.00  0.99  0.00  0.00  0.00  0.00  0.00
  WS02006231WS02006230    1.00   0.01  0.00  0.00  0.64  0.00  0.35  0.00  0.00  0.00
  WS02006230WS02006229    1.00   0.00  0.00  0.00  0.99  0.00  0.00  0.01  0.00  0.00
  WS02006228WS02006109    1.00   0.00  0.00  0.00  1.00  0.00  0.00  0.00  0.00  0.00
  WS02006116WS02004401    1.00   0.02  0.00  0.00  0.98  0.00  0.00  0.00  0.00  0.00
  WS02006115WS02006116    1.00   0.02  0.00  0.00  0.98  0.00  0.00  0.00  0.00  0.00
  WS02006113WS02006111    1.00   0.01  0.00  0.00  0.19  0.80  0.00  0.00  0.18  0.00
  WS02006112WS02006115    1.00   0.01  0.00  0.00  0.98  0.00  0.00  0.00  0.00  0.00
  WS02006111WS02006112    1.00   0.01  0.00  0.00  0.98  0.00  0.00  0.00  0.72  0.00
  WS02006110WS02006113    1.00   0.00  0.01  0.00  0.99  0.00  0.00  0.00  0.00  0.00
  WS02006109WS02006110    1.00   0.00  0.00  0.00  0.99  0.00  0.00  0.00  0.00  0.00
  WS02004411WS02004412    1.00   0.03  0.00  0.00  0.97  0.00  0.00  0.00  0.00  0.00
  WS02004401WS02004402    1.00   0.02  0.00  0.00  0.98  0.00  0.00  0.00  0.00  0.00
  WS02004413WS02003067    1.00   0.03  0.00  0.00  0.00  0.00  0.97  0.00  0.00  0.00
  WS02004412WS02004413    1.00   0.03  0.00  0.00  0.97  0.00  0.00  0.00  0.00  0.00
  WS02004410WS02004411    1.00   0.03  0.00  0.00  0.97  0.00  0.00  0.00  0.00  0.00
  WS02004409WS02004410    1.00   0.03  0.00  0.00  0.97  0.00  0.00  0.00  0.00  0.00
  WS02004407WS02004409    1.00   0.03  0.00  0.00  0.97  0.00  0.00  0.00  0.92  0.00
  WS02004406WS02004407    1.00   0.00  0.03  0.00  0.97  0.00  0.00  0.00  0.00  0.00
  WS02004405WS02004406    1.00   0.00  0.00  0.00  1.00  0.00  0.00  0.00  0.02  0.00
  WS02004404WS02004405    1.00   0.00  0.00  0.00  1.00  0.00  0.00  0.00  0.00  0.00
  WS02004403WS02004404    1.00   0.00  0.02  0.00  0.98  0.00  0.00  0.00  0.00  0.00
  WS02004402WS02004403    1.00   0.02  0.00  0.00  0.98  0.00  0.00  0.00  0.00  0.00
  WS02004139WS02001211    1.00   0.00  0.00  0.00  1.00  0.00  0.00  0.00  0.00  0.00
  WS02004138WS02004139    1.00   0.00  0.00  0.00  1.00  0.00  0.00  0.00  1.00  0.00
  WS02003067WS02003066    1.00   0.03  0.00  0.00  0.96  0.00  0.00  0.00  0.00  0.00
  WS02001213WS02003059    1.00   0.00  0.00  0.00  1.00  0.00  0.00  0.00  0.00  0.00
  WS02001212WS02001213    1.00   0.00  0.00  0.00  0.93  0.00  0.07  0.00  0.00  0.00
  WS02001211WS02001212    1.00   0.00  0.00  0.00  1.00  0.00  0.00  0.00  0.00  0.00
  WS02003072WS02003073    1.00   0.00  0.00  0.00  0.00  0.00  0.00  1.00  0.00  0.00
  WS02003069WS02003072    1.00   0.00  0.00  0.00  1.00  0.00  0.00  0.00  0.06  0.00
  WS02003060WS02003069    1.00   0.00  0.00  0.00  0.99  0.01  0.00  0.00  0.04  0.00
  WS02003059WS02003060    1.00   0.00  0.00  0.00  1.00  0.00  0.00  0.00  0.00  0.00
  HS02004901HS02004770    1.00   0.04  0.00  0.00  0.96  0.00  0.00  0.00  0.00  0.00
  HS02004876HS02004881    1.00   0.01  0.00  0.00  0.78  0.22  0.00  0.00  0.00  0.00
  HS02004870HS02004876    1.00   0.00  0.00  0.00  1.00  0.00  0.00  0.00  0.95  0.00
  HS02004842HS02004848    1.00   0.00  0.04  0.00  0.96  0.00  0.00  0.00  0.53  0.00
  HS02004837HS02004842    1.00   0.00  0.00  0.00  1.00  0.00  0.00  0.00  0.11  0.00
  HS02004830HS02004837    1.00   0.00  0.00  0.00  1.00  0.00  0.00  0.00  0.99  0.00
  HS02004824HS02004830    1.00   0.00  0.00  0.00  1.00  0.00  0.00  0.00  0.03  0.00
  HS02004817HS02004824    1.00   0.00  0.00  0.00  1.00  0.00  0.00  0.00  0.86  0.00
  HS02004770HS02004777    1.00   0.00  0.04  0.00  0.96  0.00  0.00  0.00  0.01  0.00
  HS02004799HS02004480    1.00   0.00  0.01  0.00  0.95  0.00  0.04  0.00  0.00  0.00
  HS02004792HS02004799    1.00   0.00  0.00  0.00  1.00  0.00  0.00  0.00  0.98  0.00
  HS02004788HS02004792    1.00   0.00  0.00  0.00  1.00  0.00  0.00  0.00  0.98  0.00
  HS02004785HS02004788    1.00   0.00  0.00  0.00  1.00  0.00  0.00  0.00  0.00  0.00
  HS02004777HS02004785    1.00   0.00  0.00  0.00  1.00  0.00  0.00  0.00  0.10  0.00
  HS02004480HS02004478    1.00   0.05  0.00  0.00  0.65  0.00  0.00  0.30  0.00  0.00
  HS02004479HS02004480    1.00   0.01  0.00  0.00  0.99  0.00  0.00  0.00  0.10  0.00
  HS02004862HS02004870    1.00   0.00  0.00  0.00  1.00  0.00  0.00  0.00  0.02  0.00
  HS02004848HS02004852    1.00   0.04  0.00  0.00  0.96  0.00  0.00  0.00  0.83  0.00
  HS02004856HS02004862    1.00   0.00  0.05  0.00  0.95  0.00  0.00  0.00  0.85  0.00
  HS02004852HS02004856    1.00   0.04  0.00  0.00  0.95  0.00  0.00  0.00  0.69  0.00
  HS02004802HS02004478    1.00   0.05  0.00  0.00  0.95  0.00  0.00  0.00  0.01  0.00
  HS02004478WS02006287    1.00   0.05  0.00  0.00  0.69  0.26  0.00  0.00  0.58  0.00
  HS02004817HS02004807    1.00   0.00  0.04  0.00  0.96  0.00  0.00  0.00  0.01  0.00
  HS02004807HS02004802    1.00   0.04  0.00  0.00  0.95  0.00  0.00  0.00  0.00  0.00
  YS02001759YS02001757    1.00   0.00  0.00  0.00  1.00  0.00  0.00  0.00  0.15  0.00
  YS02001762YS02001759    1.00   0.00  0.00  0.00  1.00  0.00  0.00  0.00  0.01  0.00
  YS02001765YS02001762    1.00   0.00  0.00  0.00  1.00  0.00  0.00  0.00  0.13  0.00
  YS02001770YS02001767    1.00   0.00  0.00  0.00  1.00  0.00  0.00  0.00  0.00  0.00
  YS02001774YS02001770    1.00   0.00  0.04  0.00  0.95  0.00  0.00  0.00  0.01  0.00
  YS02001779YS02001774    1.00   0.00  0.00  0.00  1.00  0.00  0.00  0.00  0.15  0.00
  YS02001649YS02001757    1.00   0.00  0.00  0.00  1.00  0.00  0.00  0.00  0.15  0.00
  YS02001767YS02001765    1.00   0.00  0.00  0.00  1.00  0.00  0.00  0.00  0.00  0.00
  YS02006561YS02001783    1.00   0.05  0.00  0.00  0.48  0.46  0.00  0.00  0.37  0.00
  YS02001783YS02001784    1.00   0.00  0.05  0.00  0.95  0.00  0.00  0.00  0.00  0.00
  YS02001784YS02001785    1.00   0.00  0.00  0.00  1.00  0.00  0.00  0.00  0.15  0.00
  YS02001788YS02001790    1.00   0.00  0.00  0.00  0.53  0.47  0.00  0.00  0.29  0.00
  YS02001790YS02001791    1.00   0.00  0.00  0.00  0.49  0.51  0.00  0.00  0.34  0.00
  YS02001791YS02001793    1.00   0.00  0.00  0.00  0.52  0.48  0.00  0.00  0.02  0.00
  YS02001910YS02001907    1.00   0.00  0.00  0.00  0.99  0.00  0.00  0.01  0.11  0.00
  YS02001786YS02001788    1.00   0.00  0.00  0.00  0.51  0.49  0.00  0.00  0.00  0.00
  YS02001915YS02001910    1.00   0.00  0.00  0.00  0.99  0.01  0.00  0.00  0.12  0.00
  YS02001918YS02001915    1.00   0.00  0.00  0.00  0.99  0.00  0.00  0.00  0.44  0.00
  YS02001923YS02001920    1.00   0.00  0.00  0.00  1.00  0.00  0.00  0.00  0.65  0.00
  YS02001926YS02001923    1.00   0.00  0.03  0.00  0.33  0.00  0.65  0.00  0.00  0.00
  YS02001929YS02001926    1.00   0.00  0.04  0.00  0.96  0.00  0.00  0.00  0.56  0.00
  YS02001920YS02001918    1.00   0.00  0.00  0.00  1.00  0.00  0.00  0.00  0.00  0.00
  YS02001629YS02163301    1.00   0.05  0.00  0.00  0.95  0.00  0.00  0.00  0.00  0.00
  YS02001619YS02001622    1.00   0.04  0.00  0.00  0.96  0.00  0.00  0.00  0.00  0.00
  YS02001622YS02001625    1.00   0.04  0.00  0.00  0.95  0.00  0.00  0.00  0.02  0.00
  YS02001625YS02001629    1.00   0.04  0.01  0.00  0.93  0.00  0.01  0.00  0.00  0.00
  YS02163301YS02001633    1.00   0.00  0.05  0.00  0.95  0.00  0.00  0.00  0.00  0.00
  YS02163601YS02164001    1.00   0.00  0.03  0.00  0.97  0.00  0.00  0.00  0.00  0.00
  YS02164001YS02001641    1.00   0.00  0.03  0.00  0.97  0.00  0.00  0.00  0.05  0.00
  YS02001641YS02001644    1.00   0.00  0.00  0.00  1.00  0.00  0.00  0.00  0.00  0.00
  YS02001647YS02001649    1.00   0.00  0.05  0.00  0.95  0.00  0.00  0.00  0.01  0.00
  YS02006553YS02006556    1.00   0.00  0.00  0.00  1.00  0.00  0.00  0.00  0.03  0.00
  YS02006556YS02006558    1.00   0.00  0.00  0.00  1.00  0.00  0.00  0.00  0.00  0.00
  YSB6556YSB1171          1.00   0.01  0.03  0.00  0.96  0.00  0.00  0.00  0.00  0.00
  YS02001907YS02006553    1.00   0.00  0.01  0.00  0.99  0.00  0.00  0.00  0.00  0.00
  YS02006558YS02006561    1.00   0.05  0.00  0.00  0.32  0.63  0.00  0.00  0.37  0.00
  YS02001633YS02163601    1.00   0.00  0.00  0.00  1.00  0.00  0.00  0.00  0.14  0.00
  YS02001644YS02001647    1.00   0.00  0.05  0.00  0.95  0.00  0.00  0.00  0.00  0.00
  YS02001745YS02001748    1.00   0.00  0.00  0.00  0.92  0.00  0.00  0.07  0.00  0.00
  YS02001748YS02001751    1.00   0.00  0.00  0.00  0.98  0.02  0.00  0.00  0.13  0.00
  YS02001751YS02001754    1.00   0.00  0.00  0.00  0.94  0.00  0.00  0.06  0.01  0.00
  YS02001754YS02001757    1.00   0.00  0.00  0.00  1.00  0.00  0.00  0.00  0.15  0.00
  YS02001882YS02001884    1.00   0.05  0.00  0.00  0.95  0.00  0.00  0.00  0.00  0.00
  YS02001884YS02001887    1.00   0.02  0.02  0.00  0.96  0.00  0.00  0.00  0.00  0.00
  YS02001890YS02001895    1.00   0.00  0.05  0.00  0.95  0.00  0.00  0.00  0.00  0.00
  YS02001895YS02001898    1.00   0.05  0.00  0.00  0.94  0.00  0.01  0.00  0.00  0.00
  YS02001898YS02001901    1.00   0.05  0.00  0.00  0.95  0.00  0.00  0.00  0.00  0.00
  YS02001901YS02001904    1.00   0.05  0.00  0.00  0.95  0.00  0.00  0.00  0.00  0.00
  YS02001904YS02001907    1.00   0.00  0.05  0.00  0.95  0.00  0.00  0.00  0.00  0.00
  YS02001887YS02001890    1.00   0.00  0.00  0.00  0.99  0.00  0.01  0.00  0.00  0.00
  YS02001652YS02001649    1.00   0.00  0.00  0.00  1.00  0.00  0.00  0.00  0.14  0.00
  YS02001655YS02001652    1.00   0.00  0.00  0.00  0.94  0.00  0.00  0.06  0.01  0.00
  YS02001658YS02001655    1.00   0.00  0.05  0.00  0.93  0.02  0.00  0.00  0.01  0.00
  YS02001661YS02001658    1.00   0.05  0.00  0.00  0.92  0.03  0.00  0.00  0.00  0.00
  YS02001664YS02001661    1.00   0.04  0.00  0.00  0.93  0.03  0.00  0.00  0.06  0.00
  YSB1154YSB6556          1.00   0.04  0.00  0.00  0.96  0.00  0.00  0.00  0.01  0.00
  YSB1174YSB1171          1.00   0.02  0.02  0.00  0.97  0.00  0.00  0.00  0.00  0.00
  YSB1171HS02004479       1.00   0.01  0.00  0.00  0.98  0.00  0.00  0.01  0.09  0.00
  HS02004881HS02006253    1.00   0.02  0.00  0.00  0.50  0.04  0.00  0.44  0.41  0.00
  YS02001793JiankangQianchi    1.00   0.00  0.00  0.00  0.71  0.29  0.00  0.00  0.29  0.00
  YS02001757CaochengTiaoxuchi    1.00   0.00  0.06  0.00  0.91  0.03  0.00  0.00  0.00  0.00
  WSF200WS02003060        1.00   0.00  0.01  0.00  0.98  0.02  0.00  0.00  0.47  0.00
  1                       1.00   0.00  0.00  0.00  0.00  1.00  0.00  0.00  0.51  0.00
  
  
  *************************
  Conduit Surcharge Summary
  *************************
  
  ----------------------------------------------------------------------------
                                                           Hours        Hours 
                         --------- Hours Full --------   Above Full   Capacity
  Conduit                Both Ends  Upstream  Dnstream   Normal Flow   Limited
  ----------------------------------------------------------------------------
  WS02006280WS02006229        0.01      0.01      0.01      0.01         0.01
  WS02006229WS02006228        3.13      3.26      3.13      4.45         3.13
  WS02006256WS02006235        6.07      6.07      7.11      5.31         0.01
  WS02006253WS02006251        1.83      1.83      1.85      0.01         0.01
  WS02006252WS02006251        1.29      1.29      1.87      0.80         0.01
[...]
  YS02001649YS02001757        6.40      6.40      6.42      0.01         0.01
  YS02001767YS02001765        6.39      6.39      6.40      0.01         0.01
  YS02006561YS02001783        2.43      2.43      2.64      0.01         0.01
  YS02001783YS02001784        2.61      2.64      2.61      2.89         2.61
  YS02001784YS02001785        2.53      2.61      2.53      3.62         2.52
  YS02001788YS02001790        2.47      2.47      3.27      0.01         0.01
  YS02001790YS02001791        3.27      3.27      3.35      2.57         2.55
  YS02001791YS02001793        3.35      3.35      3.66      0.01         0.01
  YS02001910YS02001907        2.68      2.68      3.14      0.01         0.01
  YS02001786YS02001788        2.47      2.53      2.47      3.28         2.47
  YS02001915YS02001910        2.54      2.54      2.68      0.01         0.01
  YS02001918YS02001915        2.40      2.40      2.54      0.01         0.01
  YS02001923YS02001920        2.24      2.24      2.42      0.01         0.01
  YS02001926YS02001923        0.01      0.01      0.01      0.01         0.01
  YS02001929YS02001926        0.01      0.01      0.01      0.01         0.01
  YS02001920YS02001918        2.40      2.40      2.42      0.01         0.01
  YS02001629YS02163301        6.38      6.38      6.39      0.01         0.01
  YS02001619YS02001622        6.37      6.37      6.37      0.01         0.04
  YS02001622YS02001625        6.37      6.37      6.38      0.01         0.01
  YS02001625YS02001629        6.37      6.37      6.38      0.01         0.01
  YS02163301YS02001633        6.39      6.39      6.40      0.01         0.01
  YS02163601YS02164001        6.40      6.40      6.40      0.01         0.01
  YS02164001YS02001641        6.40      6.40      6.40      0.01         0.02
  YS02001641YS02001644        6.40      6.40      6.40      3.18         3.29
  YS02001647YS02001649        6.38      6.38      6.40      0.01         0.01
  YS02006553YS02006556        2.84      2.84      3.19      0.01         0.01
  YS02006556YS02006558        2.95      2.95      3.24      0.01         0.01
  YSB6556YSB1171              0.01      0.01      0.58      0.01         0.01
  YS02001907YS02006553        3.63      3.63      3.86      0.01         0.01
  YS02006558YS02006561        2.49      2.82      2.49      3.49         2.49
  YS02001633YS02163601        6.40      6.40      6.40      0.01         0.01
  YS02001644YS02001647        6.38      6.38      6.40      0.01         0.01
  YS02001745YS02001748        1.11      1.11      6.35      0.01         0.01
  YS02001748YS02001751        6.35      6.35      6.36      0.01         0.01
  YS02001751YS02001754        6.36      6.36      6.38      0.01         0.01
  YS02001754YS02001757        6.38      6.38      6.42      0.01         0.01
  YS02001882YS02001884        2.55      2.55      2.56      0.01         0.01
  YS02001884YS02001887        2.60      2.60      2.62      0.01         0.01
  YS02001890YS02001895        2.53      2.53      2.69      0.01         0.01
  YS02001895YS02001898        2.52      2.52      2.53      0.01         0.01
  YS02001898YS02001901        2.53      2.53      2.59      0.01         0.01
  YS02001901YS02001904        2.58      2.58      2.59      0.01         0.01
  YS02001904YS02001907        2.58      2.58      3.22      0.01         0.01
  YS02001887YS02001890        2.64      2.64      2.66      1.66         0.01
  YS02001652YS02001649        6.38      6.38      6.40      0.01         0.01
  YS02001655YS02001652        6.37      6.37      6.38      0.01         0.01
  YS02001658YS02001655        6.35      6.35      6.37      0.01         0.01
  YS02001661YS02001658        1.45      1.45      6.35      0.01         0.01
  YS02001664YS02001661        0.01      0.01      2.37      0.01         0.01
  YSB1174YSB1171              0.01      0.01      0.32      0.01         0.01
  HS02004881HS02006253        0.01      0.01      1.39      0.01         0.01
  YS02001793JiankangQianchi        3.58      3.58      5.00      0.01         0.01
  YS02001757CaochengTiaoxuchi        5.98      5.98      6.42      0.01         0.01
  
  
  ***************
  Pumping Summary
  ***************
  
  ---------------------------------------------------------------------------------------------------------
                                                  Min       Avg       Max     Total     Power    % Time Off
                        Percent   Number of      Flow      Flow      Flow    Volume     Usage    Pump Curve
  Pump                 Utilized   Start-Ups       LPS       LPS       LPS  10^6 ltr     Kw-hr    Low   High
  ---------------------------------------------------------------------------------------------------------
  CC-Pump-1               44.69           4      0.00    115.91    200.00     1.440      1.17    0.0    0.0
  CC-Pump-2               23.40           2      0.00    103.57    200.00     0.720      0.78    0.0    0.0
  JK-Pump-1               70.21           4      0.00    245.47    300.00     4.858     60.94    0.0    0.0
  JK-Pump-2               65.95           3      0.00    501.86    683.00     9.488    104.84    0.0   98.1
  XR-Pump-1              100.00           1      0.00     95.00     95.00     2.679     20.78    0.0    0.0
  XR-Pump-2               97.87           3      0.00     92.31     95.00     2.508     17.32    0.0    0.0
  XR-Pump-3               97.87           3      0.00     92.31     95.00     2.508     17.32    0.0    0.0
  XR-Pump-4               97.87           3      0.00     92.31     95.00     2.508     17.32    0.0    0.0
  
  
  ***************************
  Link Pollutant Load Summary
  ***************************
  
  ------------------------------------------------------------------------------------------
                                 COD            SS            TN            TP         NH4-N
  Link                            kg            kg            kg            kg            kg
  ------------------------------------------------------------------------------------------
  WS02003066WSF200          1246.658      2440.389        29.635         2.465        15.174
  WS02006287WS02006284       662.638      1308.463        17.243         1.527         9.012
  WS02006284WS02006280       663.090      1309.165        17.290         1.533         9.042
  WS02006280WS02006229       663.182      1309.447        17.289         1.533         9.041
  WS02006229WS02006228      1226.192      2402.105        28.715         2.359        14.639
  WS02006256WS02006235       304.573       582.670         6.409         0.475         3.176
  WS02006253WS02006251       128.418       260.466         2.727         0.199         1.335
  WS02006252WS02006251       267.751       530.182         4.995         0.346         2.402
  WS02006251WS02006249       389.652       778.151         7.599         0.537         3.677
  WS02006249WS02006248       290.010       575.588         5.689         0.403         2.759
  WS02006248WS02006247       295.553       586.167         5.819         0.414         2.827
  WS02006247WS02006245       294.653       583.619         5.810         0.414         2.824
  WS02006245WS02006243       293.907       581.414         5.800         0.414         2.820
  WS02006243WS02006242       293.792       580.114         5.808         0.415         2.826
  WS02006242WS02006240       293.015       577.359         5.805         0.415         2.826
  WS02006240WS02006239       293.401       577.209         5.821         0.417         2.835
  WS02006239WS02006238       294.859       579.479         5.853         0.419         2.851
  WS02006238WS02006235       295.760       580.938         5.866         0.420         2.857
  WS02006235WS02006234       567.779      1102.166        11.563         0.839         5.672
  WS02006234WS02006232       571.381      1109.320        11.653         0.847         5.720
  WS02006232WS02006231       574.639      1115.875        11.735         0.855         5.763
  WS02006231WS02006230       578.394      1123.536        11.826         0.863         5.810
  WS02006230WS02006229       583.793      1134.633        11.943         0.872         5.869
  WS02006228WS02006109      1226.336      2402.457        28.708         2.358        14.634
  WS02006116WS02004401      1259.830      2465.956        29.915         2.486        15.314
  WS02006115WS02006116      1260.789      2467.797        29.944         2.489        15.330
  WS02006113WS02006111      1234.301      2415.557        29.470         2.453        15.110
  WS02006112WS02006115      1261.935      2469.958        29.984         2.493        15.353
  WS02006111WS02006112      1233.726      2414.300        29.451         2.451        15.100
  WS02006110WS02006113      1234.499      2415.726        29.487         2.455        15.121
  WS02006109WS02006110      1235.141      2416.656        29.533         2.460        15.148
  WS02004411WS02004412      1250.876      2448.482        29.754         2.476        15.238
  WS02004401WS02004402      1258.653      2463.730        29.877         2.483        15.293
  WS02004413WS02003067      1247.733      2442.475        29.659         2.467        15.186
  WS02004412WS02004413      1249.289      2445.426        29.711         2.472        15.216
  WS02004410WS02004411      1252.167      2450.970        29.786         2.479        15.255
  WS02004409WS02004410      1253.387      2453.312        29.820         2.482        15.273
  WS02004407WS02004409      1254.366      2455.197        29.844         2.484        15.286
  WS02004406WS02004407      1254.498      2455.428        29.844         2.484        15.285
  WS02004405WS02004406      1256.107      2458.429        29.902         2.490        15.318
  WS02004404WS02004405      1257.085      2460.424        29.904         2.488        15.316
  WS02004403WS02004404      1256.633      2459.899        29.816         2.477        15.259
  WS02004402WS02004403      1257.652      2461.829        29.848         2.480        15.277
  WS02004139WS02001211      1284.799      2229.980        86.535        10.234        52.406
  WS02004138WS02004139      1290.243      2239.366        86.892        10.276        52.621
  WS02003067WS02003066      1246.876      2440.799        29.641         2.466        15.178
  WS02001213WS02003059      1319.857      2284.591        90.263        10.706        54.753
  WS02001212WS02001213      1327.904      2298.291        90.838        10.774        55.102
  WS02001211WS02001212      1329.819      2301.445        90.996        10.794        55.200
  WS02003072WS02003073      2666.421      4882.497       130.031        14.446        76.282
  WS02003069WS02003072      2671.856      4891.800       130.430        14.494        76.527
  WS02003060WS02003069      2674.562      4896.823       130.532        14.504        76.584
  WS02003059WS02003060      1317.103      2279.751        90.106        10.688        54.659
  HS02004901HS02004770        31.241        62.186         0.612         0.047         0.291
  HS02004876HS02004881       101.412       206.325         2.154         0.154         1.046
  HS02004870HS02004876        77.887       158.592         1.699         0.122         0.826
  HS02004842HS02004848        14.996        29.644         0.314         0.022         0.147
  HS02004837HS02004842        19.708        37.152         0.788         0.082         0.444
  HS02004830HS02004837       101.807       187.057         5.289         0.600         3.141
  HS02004824HS02004830       102.662       188.505         5.364         0.610         3.188
  HS02004817HS02004824       158.468       303.821         6.498         0.682         3.738
  HS02004770HS02004777       119.649       241.819         2.495         0.175         1.169
  HS02004799HS02004480       374.824       742.447         8.578         0.702         4.270
  HS02004792HS02004799       343.088       676.948         8.002         0.666         3.998
  HS02004788HS02004792       180.018       356.944         4.687         0.402         2.399
  HS02004785HS02004788       121.031       244.025         2.637         0.193         1.259
  HS02004777HS02004785       120.351       242.948         2.575         0.185         1.220
  HS02004480HS02004478       464.814       922.680        10.234         0.827         5.069
  HS02004479HS02004480        93.772       186.478         1.955         0.161         0.984
  HS02004862HS02004870        60.203       121.269         1.340         0.100         0.653
  HS02004848HS02004852        26.761        53.672         0.548         0.038         0.256
  HS02004856HS02004862        41.868        85.059         0.850         0.058         0.403
  HS02004852HS02004856        26.785        53.715         0.548         0.038         0.257
  HS02004802HS02004478       198.962       387.628         7.079         0.709         3.985
  HS02004478WS02006287       662.722      1308.507        17.260         1.529         9.023
  HS02004817HS02004807       157.286       302.054         6.359         0.664         3.650
  HS02004807HS02004802       198.929       387.531         7.104         0.712         4.002
  YS02001759YS02001757       560.350      1089.756        10.834         0.770         5.282
  YS02001762YS02001759       357.046       686.642         7.172         0.513         3.517
  YS02001765YS02001762       358.325       690.551         7.206         0.516         3.536
  YS02001770YS02001767       366.290       709.931         7.258         0.513         3.545
  YS02001774YS02001770       862.932      1708.149        16.989         1.160         8.255
  YS02001779YS02001774       862.732      1707.917        17.055         1.170         8.301
  YS02001649YS02001757       780.007      1505.431        15.639         1.072         7.576
  YS02001767YS02001765       361.166       697.613         7.264         0.520         3.565
  YS02006561YS02001783      1600.822      3070.135        33.135         2.427        16.342
  YS02001783YS02001784      1600.744      3070.031        33.131         2.427        16.340
  YS02001784YS02001785      1608.170      3081.989        33.845         2.516        16.786
  YS02001788YS02001790      1608.833      3083.111        33.917         2.525        16.832
  YS02001790YS02001791      1609.916      3084.921        34.017         2.538        16.894
  YS02001791YS02001793      1609.767      3084.642        34.012         2.537        16.891
  YS02001910YS02001907       952.293      1850.164        20.365         1.455        10.130
  YS02001786YS02001788      1608.430      3082.456        33.874         2.520        16.804
  YS02001915YS02001910       951.711      1849.009        20.315         1.448        10.098
  YS02001918YS02001915       473.373       888.409        10.561         0.858         5.403
  YS02001923YS02001920       447.787       844.418         8.527         0.612         4.148
  YS02001926YS02001923       444.654       838.724         8.404         0.599         4.078
  YS02001929YS02001926       441.913       833.839         8.304         0.589         4.021
  YS02001920YS02001918       468.875       878.911        10.464         0.852         5.355
  YS02001629YS02163301       210.689       398.536         4.146         0.295         1.983
  YS02001619YS02001622       451.043       868.482         9.084         0.615         4.291
  YS02001622YS02001625       450.711       868.043         9.072         0.614         4.286
  YS02001625YS02001629       205.060       387.528         4.046         0.287         1.933
  YS02163301YS02001633       216.427       409.785         4.246         0.304         2.033
  YS02163601YS02164001       715.911      1349.471        13.900         1.022         6.717
  YS02164001YS02001641       716.586      1350.693        13.899         1.021         6.715
  YS02001641YS02001644       719.002      1355.060        13.935         1.023         6.731
  YS02001647YS02001649       942.483      1806.508        19.081         1.334         9.175
  YS02006553YS02006556       810.162      1516.367        17.534         1.318         8.773
  YS02006556YS02006558       810.718      1517.428        17.502         1.312         8.749
  YSB6556YSB1171              54.544       108.517         1.086         0.087         0.541
  YS02001907YS02006553       809.883      1515.816        17.577         1.324         8.802
  YS02006558YS02006561      1600.725      3069.920        33.134         2.427        16.342
  YS02001633YS02163601       716.453      1350.357        13.876         1.017         6.698
  YS02001644YS02001647       949.470      1820.477        19.185         1.342         9.224
  YS02001745YS02001748       597.846      1178.488        11.860         0.761         5.722
  YS02001748YS02001751       597.382      1177.736        11.870         0.763         5.732
  YS02001751YS02001754       596.706      1176.648        11.859         0.763         5.728
  YS02001754YS02001757       597.899      1178.556        12.028         0.786         5.836
  YS02001882YS02001884         5.845        10.640         0.108         0.008         0.053
  YS02001884YS02001887         8.606        15.825         0.158         0.012         0.078
  YS02001890YS02001895       827.158      1598.333        15.723         1.198         7.699
  YS02001895YS02001898       827.018      1598.201        15.716         1.197         7.695
  YS02001898YS02001901       826.985      1598.042        15.717         1.198         7.696
  YS02001901YS02001904       826.608      1597.526        15.723         1.199         7.702
  YS02001904YS02001907       827.421      1598.746        15.799         1.208         7.748
  YS02001887YS02001890      1075.750      2094.608        20.306         1.549         9.938
  YS02001652YS02001649       550.488      1064.419        10.994         0.802         5.191
  YS02001655YS02001652       551.193      1065.554        11.015         0.804         5.201
  YS02001658YS02001655       550.980      1065.215        10.936         0.793         5.148
  YS02001661YS02001658       551.647      1066.258        10.953         0.794         5.156
  YS02001664YS02001661       556.960      1074.328        11.091         0.803         5.219
  YSB1154YSB6556              54.069       107.774         1.038         0.081         0.511
  YSB1174YSB1171              37.703        75.532         0.747         0.059         0.368
  YSB1171HS02004479           93.613       186.167         1.960         0.162         0.989
  HS02004881HS02006253       113.855       232.182         2.393         0.170         1.162
  YS02001793JiankangQianchi      1609.867      3084.846        33.991         2.534        16.877
  YS02001757CaochengTiaoxuchi       748.648      1469.161        14.214         0.982         6.847
  WSF200WS02003060          1246.388      2439.892        29.633         2.465        15.174
  1                         2673.197      4892.307       130.975        14.569        76.886
  CC-Pump-1                  178.499       353.582         3.320         0.229         1.595
  CC-Pump-2                   88.745       175.645         1.652         0.114         0.794
  JK-Pump-1                  444.173       860.961         9.096         0.668         4.483
  JK-Pump-2                 1011.157      1960.000        20.701         1.520        10.201
  XR-Pump-1                  348.142       600.924        24.136         2.870        14.660
  XR-Pump-2                  315.124       547.995        20.999         2.478        12.703
  XR-Pump-3                  315.124       547.995        20.999         2.478        12.703
  XR-Pump-4                  315.124       547.995        20.999         2.478        12.703
  

  Analysis begun on:  Thu Jul 15 18:02:04 2021
  Analysis ended on:  Thu Jul 15 18:02:06 2021
  Total elapsed time: 00:00:02