
  EPA STORM WATER MANAGEMENT MODEL - VERSION 5.1 (Build 5.3.0.dev0)
  --------------------------------------------------------------

  WARNING 04: minimum elevation drop used for Conduit WS02004404WS02004405
  WARNING 03: negative offset ignored for Link YS02001904YS02001907
  
  *********************************************************
  NOTE: The summary statistics displayed in this report are
  based on results found at every computational time step,  
  not just on results from each reporting time step.
  *********************************************************
  
  ****************
  Analysis Options
  ****************
  Flow Units ............... LPS
  Process Models:
    Rainfall/Runoff ........ YES
    RDII ................... NO
    Snowmelt ............... NO
    Groundwater ............ NO
    Flow Routing ........... YES
    Ponding Allowed ........ NO
    Water Quality .......... YES
  Infiltration Method ...... HORTON
  Flow Routing Method ...... DYNWAVE
  Surcharge Method ......... EXTRAN
  Starting Date ............ 08/28/2015 08:00:00
  Ending Date .............. 08/28/2015 15:50:00
  Antecedent Dry Days ...... 8.0
  Report Time Step ......... 00:01:00
  Wet Time Step ............ 00:01:00
  Dry Time Step ............ 00:01:00
  Routing Time Step ........ 5.00 sec
  Variable Time Step ....... YES
  Maximum Trials ........... 8
  Number of Threads ........ 4
  Head Tolerance ........... 0.001500 m
  
  
  **************************        Volume         Depth
  Runoff Quantity Continuity     hectare-m            mm
  **************************     ---------       -------
  Total Precipitation ......        10.887        23.836
  Evaporation Loss .........         0.000         0.000
  Infiltration Loss ........         1.411         3.089
  Surface Runoff ...........         8.292        18.155
  Final Storage ............         1.186         2.596
  Continuity Error (%) .....        -0.016
  
  
  **************************           COD            SS            TN            TP         NH4-N
  Runoff Quality Continuity             kg            kg            kg            kg            kg
  **************************    ----------    ----------    ----------    ----------    ----------
  Initial Buildup ..........     41378.656     70582.865      1804.177       168.684      1032.807
  Surface Buildup ..........        41.425        91.431         2.568         0.227         1.442
  Wet Deposition ...........         0.000         0.000         0.000         0.000         0.000
  Sweeping Removal .........         0.000         0.000         0.000         0.000         0.000
  Infiltration Loss ........       164.554       320.127         3.263         0.236         1.574
  BMP Removal ..............         0.000         0.000         0.000         0.000         0.000
  Surface Runoff ...........      9366.500     18283.806       183.722        12.955        88.133
  Remaining Buildup ........     31885.964     52064.522      1619.692       155.715       944.511
  Continuity Error (%) .....         0.007         0.008         0.004         0.003         0.003
  
  
  **************************        Volume        Volume
  Flow Routing Continuity        hectare-m      10^6 ltr
  **************************     ---------     ---------
  Dry Weather Inflow .......         0.616         6.165
  Wet Weather Inflow .......         8.290        82.901
  Groundwater Inflow .......         0.000         0.000
  RDII Inflow ..............         0.000         0.000
  External Inflow ..........         0.102         1.024
  External Outflow .........         2.084        20.842
  Flooding Loss ............         6.440        64.400
  Evaporation Loss .........         0.000         0.000
  Exfiltration Loss ........         0.000         0.000
  Initial Stored Volume ....         0.076         0.761
  Final Stored Volume ......         0.669         6.692
  Continuity Error (%) .....        -1.194
  
  
  **************************           COD            SS            TN            TP         NH4-N
  Quality Routing Continuity            kg            kg            kg            kg            kg
  **************************    ----------    ----------    ----------    ----------    ----------
  Dry Weather Inflow .......      1541.201      2465.922       147.955        18.494        92.472
  Wet Weather Inflow .......      9365.218     18281.540       183.694        12.953        88.119
  Groundwater Inflow .......         0.000         0.000         0.000         0.000         0.000
  RDII Inflow ..............         0.000         0.000         0.000         0.000         0.000
  External Inflow ..........       183.418       293.469        17.608         2.201        11.005
  External Outflow .........      2637.155      4818.720       130.846        14.598        76.919
  Flooding Loss ............      7646.106     14749.309       189.297        16.137        98.334
  Exfiltration Loss ........         0.000         0.000         0.000         0.000         0.000
  Mass Reacted .............         0.000         0.000         0.000         0.000         0.000
  Initial Stored Mass ......         0.000         0.000         0.000         0.000         0.000
  Final Stored Mass ........       703.932      1304.416        25.847         2.624        14.591
  Continuity Error (%) .....         0.926         0.801         0.935         0.859         0.915
  
  
  *************************
  Highest Continuity Errors
  *************************
  Node YS02001884 (11.45%)
  Node HS02004842 (7.73%)
  Node JK-storage (-7.49%)
  Node HS02004817 (1.58%)
  Node WS02006253 (1.50%)
  
  
  ***************************
  Time-Step Critical Elements
  ***************************
  Link WS02006252WS02006251 (44.38%)
  Link WS02006280WS02006229 (16.63%)
  Link WS02006238WS02006235 (9.42%)
  Link YS02001793JiankangQianchi (7.76%)
  Link YS02006556YS02006558 (5.70%)
  
  
  ********************************
  Highest Flow Instability Indexes
  ********************************
  Link WS02006113WS02006111 (45)
  Link YS02163601YS02164001 (34)
  Link YS02001629YS02163301 (34)
  Link YS02163301YS02001633 (33)
  Link YS02001619YS02001622 (33)
  
  
  *************************
  Routing Time Step Summary
  *************************
  Minimum Time Step           :     0.45 sec
  Average Time Step           :     1.50 sec
  Maximum Time Step           :     5.00 sec
  Percent in Steady State     :    -0.00
  Average Iterations per Step :     3.85
  Percent Not Converging      :    13.77
  
  
  ***************************
  Subcatchment Runoff Summary
  ***************************
  
  ------------------------------------------------------------------------------------------------------------------------------
                            Total      Total      Total      Total     Imperv       Perv      Total       Total     Peak  Runoff
                           Precip      Runon       Evap      Infil     Runoff     Runoff     Runoff      Runoff   Runoff   Coeff
  Subcatchment                 mm         mm         mm         mm         mm         mm         mm    10^6 ltr      LPS
  ------------------------------------------------------------------------------------------------------------------------------
  sub0                      23.84       0.00       0.00       0.77      22.12       0.90      23.02        0.02     5.06   0.966
  sub1                      23.84       0.00       0.00       1.33      21.12       1.29      22.41        0.15    33.98   0.940
  sub2                      23.84       0.00       0.00       5.60      14.93       3.22      18.15        0.17    32.49   0.761
  sub3                      23.84       0.00       0.00       5.94      14.89       2.88      17.77        0.40    70.76   0.745
  sub4                      23.84       0.00       0.00       1.46      20.95       1.16      22.11        0.46    81.55   0.928
  sub5                      23.84       0.00       0.00       0.82      22.07       0.85      22.92        0.26    59.56   0.962
  sub7                      23.84       0.00       0.00       1.03      21.63       1.11      22.74        0.08    19.22   0.954
  sub8                      23.84       0.00       0.00       1.05      21.62       1.10      22.72        0.15    35.26   0.953
  sub9                      23.84       0.00       0.00       1.05      21.62       1.10      22.71        0.11    26.33   0.953
  sub10                     23.84       0.00       0.00       0.94      21.84       0.97      22.81        0.25    58.74   0.957
  sub11                     23.84       0.00       0.00       0.92      21.86       0.99      22.85        0.27    65.28   0.959
  sub12                     23.84       0.00       0.00       1.50      20.69       1.60      22.29        0.19    51.10   0.935
  sub14                     23.84       0.00       0.00       1.05      21.61       1.09      22.71        0.22    51.81   0.953
  sub15                     23.84       0.00       0.00       4.05      16.62       3.10      19.72        0.34    74.01   0.827
  sub16                     23.84       0.00       0.00       4.23      15.93       3.63      19.56        0.20    48.29   0.821
  sub17                     23.84       0.00       0.00       4.13      16.17       3.50      19.67        0.17    39.49   0.825
  sub22                     23.84       0.00       0.00       6.08      13.55       4.17      17.72        1.12   235.47   0.743
  sub23                     23.84       0.00       0.00       5.01      14.97       3.81      18.78        0.90   197.86   0.788
  sub60                     23.84       0.00       0.00       2.13      18.82       0.73      19.55        5.93   667.30   0.820
  sub61                     23.84       0.00       0.00       3.01      18.52       1.04      19.56        6.03   717.95   0.821
  sub62                     23.84       0.00       0.00       1.25      20.31       0.65      20.96        6.44   751.14   0.880
  sub63                     23.84       0.00       0.00       5.57      16.04       1.34      17.38        5.26   638.31   0.729
  sub64                     23.84       0.00       0.00       2.78      18.11       0.79      18.90        5.75   644.78   0.793
  sub65                     23.84       0.00       0.00       2.36      18.46       0.74      19.20        5.90   658.64   0.806
  sub66                     23.84       0.00       0.00       5.92      15.37       0.99      16.36        5.02   574.80   0.686
  sub67                     23.84       0.00       0.00       1.18      20.92       0.73      21.65        6.68   814.16   0.908
  sub68                     23.84       0.00       0.00       2.35      19.35       0.99      20.34        6.25   750.28   0.853
  sub69                     23.84       0.00       0.00       2.36      19.61       1.21      20.83        4.87   655.18   0.874
  sub70                     23.84      21.26       0.00       9.95      28.09       5.22      33.30        7.62   861.91   0.738
  sub71                     23.84       0.00       0.00       1.29      20.01       0.62      20.63        4.87   557.88   0.866
  sub72                     23.84       0.00       0.00       1.26      17.48       0.41      17.89        3.64   352.81   0.750
  1                         23.84      32.43       0.00       1.37      34.56      12.51      47.07       11.06  1042.57   0.837
  2                         23.84       0.00       0.00       3.02       5.81       5.77      11.58        4.63   438.27   0.486
  
  
  ****************************
  Subcatchment Washoff Summary
  ****************************
  
  ------------------------------------------------------------------------------------------
                                 COD            SS            TN            TP         NH4-N
  Subcatchment                    kg            kg            kg            kg            kg
  ------------------------------------------------------------------------------------------
  sub0                         5.447        10.648         0.101         0.009         0.050
  sub1                        23.688        48.042         0.463         0.033         0.225
  sub2                        16.966        34.031         0.358         0.025         0.167
  sub3                        41.902        83.507         0.867         0.061         0.406
  sub4                        55.504       114.752         1.120         0.071         0.542
  sub5                        53.600       106.723         1.016         0.079         0.498
  sub7                        11.854        24.343         0.233         0.016         0.114
  sub8                        17.650        37.231         0.360         0.022         0.174
  sub9                        15.191        31.538         0.304         0.020         0.147
  sub10                       44.044        88.979         0.851         0.062         0.416
  sub11                       42.563        86.978         0.834         0.059         0.406
  sub12                       37.050        74.157         0.712         0.055         0.347
  sub14                       32.601        66.963         0.643         0.044         0.313
  sub15                       47.434        94.407         0.941         0.071         0.448
  sub16                       30.857        61.246         0.608         0.047         0.290
  sub17                       28.315        55.641         0.547         0.044         0.262
  sub22                      161.087       316.749         3.138         0.242         1.488
  sub23                       88.506       179.789         1.886         0.128         0.879
  sub60                      597.605      1177.766        11.858         0.760         5.721
  sub61                      735.660      1436.196        13.939         0.989         6.759
  sub62                      737.985      1463.009        14.530         0.959         7.028
  sub63                      558.710      1076.727        11.142         0.807         5.242
  sub64                      776.597      1477.973        14.527         1.087         6.999
  sub65                      790.465      1509.997        14.865         1.095         7.170
  sub66                      450.962       868.123         9.087         0.615         4.293
  sub67                     1073.899      2091.719        20.029         1.513         9.761
  sub68                      789.681      1552.112        15.327         1.072         7.390
  sub69                      691.072      1362.692        13.304         0.964         6.425
  sub70                     1288.654      2534.730        26.762         1.929        12.763
  sub71                      488.493       980.368         9.974         0.604         4.804
  sub72                      441.504       833.180         8.283         0.587         4.008
  1                         1052.298      2081.048        22.042         1.588        10.427
  2                          118.381       219.864         3.138         0.193         1.360
  ------------------------------------------------------------------------------------------
  System                   11346.226     22181.229       223.788        15.848       107.320
  
  
  ******************
  Node Depth Summary
  ******************
  
  ---------------------------------------------------------------------------------
                                 Average  Maximum  Maximum  Time of Max    Reported
                                   Depth    Depth      HGL   Occurrence   Max Depth
  Node                 Type       Meters   Meters   Meters  days hr:min      Meters
  ---------------------------------------------------------------------------------
  WS02001211           JUNCTION     0.78     0.86     5.69     0  01:43        0.86
  WS02001212           JUNCTION     0.49     0.59     5.65     0  01:42        0.59
  WS02001213           JUNCTION     0.73     0.87     5.63     0  01:41        0.87
  WS02003069           JUNCTION     0.52     0.74     5.32     0  01:43        0.74
  WS02003072           JUNCTION     0.58     0.78     5.15     0  01:41        0.78
  WS02003073           JUNCTION     0.36     0.49     4.55     0  01:42        0.49
  WS02003060           JUNCTION     0.46     0.65     5.58     0  01:42        0.65
  WS02003066           JUNCTION     0.25     0.40     5.95     0  01:35        0.40
  WS02003059           JUNCTION     0.78     0.92     5.61     0  01:43        0.92
  WS02003067           JUNCTION     0.59     0.84     6.16     0  01:35        0.84
  WS02004401           JUNCTION     0.75     1.46     7.46     0  01:32        1.28
  WS02004402           JUNCTION     0.77     1.41     7.37     0  01:32        1.27
  WS02004403           JUNCTION     0.78     1.36     7.29     0  01:32        1.23
  WS02004404           JUNCTION     0.85     1.39     7.24     0  01:32        1.28
  WS02004406           JUNCTION     0.85     1.25     7.08     0  01:32        1.19
  WS02004409           JUNCTION     0.54     1.04     6.81     0  01:35        1.02
  WS02004410           JUNCTION     0.56     1.01     6.73     0  01:35        1.00
  WS02004411           JUNCTION     0.57     0.97     6.65     0  01:35        0.97
  WS02004412           JUNCTION     0.58     0.94     6.58     0  01:35        0.93
  WS02004413           JUNCTION     0.73     1.05     6.52     0  01:35        1.04
  WS02004405           JUNCTION     0.84     1.35     7.20     0  01:32        1.25
  WS02006109           JUNCTION     0.86     1.91     8.53     0  01:33        1.87
  WS02006110           JUNCTION     0.82     1.79     8.38     0  01:32        1.62
  WS02006111           JUNCTION     0.31     1.34     8.05     0  01:32        1.00
  WS02006112           JUNCTION     0.94     1.91     7.79     0  01:32        1.64
  WS02006113           JUNCTION     0.40     1.38     8.27     0  01:32        1.07
  WS02006115           JUNCTION     0.65     1.52     7.66     0  01:32        1.29
  WS02006116           JUNCTION     0.73     1.53     7.57     0  01:32        1.32
  WS02006230           JUNCTION     0.87     2.13     8.88     0  01:33        2.11
  WS02006231           JUNCTION     0.62     1.74     8.86     0  01:33        1.71
  WS02006232           JUNCTION     0.75     1.81     8.85     0  01:34        1.79
  WS02006234           JUNCTION     0.67     1.68     8.84     0  01:34        1.67
  WS02006235           JUNCTION     0.70     1.67     8.83     0  01:34        1.65
  WS02006238           JUNCTION     0.72     1.69     8.83     0  01:34        1.67
  WS02006240           JUNCTION     0.60     1.50     8.79     0  01:34        1.48
  WS02006242           JUNCTION     0.64     1.50     8.76     0  01:33        1.48
  WS02006243           JUNCTION     0.51     1.33     8.75     0  01:33        1.31
  WS02006245           JUNCTION     0.47     1.24     8.72     0  01:34        1.22
  WS02006247           JUNCTION     0.48     1.21     8.71     0  01:33        1.20
  WS02006248           JUNCTION     0.41     1.10     8.69     0  01:32        1.10
  WS02006249           JUNCTION     0.43     1.09     8.69     0  01:32        1.09
  WS02006239           JUNCTION     0.67     1.60     8.81     0  01:34        1.59
  WS02006251           JUNCTION     0.40     1.41     9.08     0  01:32        1.19
  WS02006252           JUNCTION     0.24     0.87     9.12     0  01:32        0.74
  WS02006253           JUNCTION     0.43     1.94     9.58     0  01:32        1.22
  WS02006256           JUNCTION     1.88     2.35     9.28     0  00:22        2.35
  WS02004138           JUNCTION     0.19     0.20     7.45     0  00:00        0.19
  WS02004139           JUNCTION     0.73     0.80     5.71     0  01:42        0.80
  WS02004407           JUNCTION     0.24     0.42     6.74     0  01:35        0.42
  WS02006228           JUNCTION     0.89     2.10     8.76     0  01:33        2.07
  WS02006229           JUNCTION     0.88     2.20     8.89     0  01:33        2.17
  WS02006280           JUNCTION     0.10     0.50     8.78     0  01:33        0.50
  WS02006284           JUNCTION     0.41     0.72     9.12     0  01:34        0.72
  WS02006287           JUNCTION     0.14     0.46     9.42     0  01:34        0.46
  WSF200               JUNCTION     0.24     0.45     5.69     0  01:36        0.45
  HS02004901           JUNCTION     0.16     0.43    10.25     0  01:33        0.43
  HS02004881           JUNCTION     0.02     0.08     9.11     0  01:32        0.06
  HS02004876           JUNCTION     0.06     0.19     9.22     0  01:32        0.19
  HS02004870           JUNCTION     0.03     0.11     9.40     0  01:35        0.11
  HS02004862           JUNCTION     0.03     0.13     9.51     0  01:35        0.13
  HS02004856           JUNCTION     0.09     0.17     9.59     0  01:35        0.17
  HS02004852           JUNCTION     0.02     0.10     9.61     0  01:35        0.10
  HS02004848           JUNCTION     0.02     0.08     9.68     0  01:36        0.08
  HS02004842           JUNCTION     0.34     0.41     9.68     0  01:35        0.41
  HS02004837           JUNCTION     0.04     0.10     9.68     0  01:35        0.10
  HS02004830           JUNCTION     0.05     0.15     9.62     0  01:35        0.15
  HS02004824           JUNCTION     0.04     0.20     9.61     0  01:35        0.20
  HS02004817           JUNCTION     0.48     0.77     9.61     0  01:34        0.77
  HS02004807           JUNCTION     0.16     0.44     9.61     0  01:35        0.44
  HS02004802           JUNCTION     0.20     0.47     9.60     0  01:34        0.47
  HS02004799           JUNCTION     0.17     0.55     9.76     0  01:33        0.55
  HS02004792           JUNCTION     0.06     0.27     9.79     0  01:33        0.27
  HS02004788           JUNCTION     0.04     0.19    10.09     0  01:34        0.19
  HS02004785           JUNCTION     0.07     0.29    10.19     0  01:33        0.29
  HS02004777           JUNCTION     0.18     0.44    10.24     0  01:33        0.44
  HS02004770           JUNCTION     0.15     0.42    10.25     0  01:33        0.42
  HS02004480           JUNCTION     0.12     0.46     9.70     0  01:33        0.46
  HS02004479           JUNCTION     0.16     0.49     9.70     0  01:34        0.49
  HS02004478           JUNCTION     0.09     0.35     9.58     0  01:34        0.35
  YS02001745           JUNCTION     0.82     1.24     8.76     0  01:29        1.04
  YS02001748           JUNCTION     1.22     1.86     8.93     0  01:28        1.46
  YS02001751           JUNCTION     1.40     1.72     8.60     0  01:28        1.64
  YS02001754           JUNCTION     1.65     1.90     8.50     0  02:56        1.89
  YS02001762           JUNCTION     1.85     2.08     8.48     0  02:54        2.07
  YS02001765           JUNCTION     1.80     2.03     8.48     0  02:54        2.02
  YS02001767           JUNCTION     1.76     1.98     8.47     0  02:54        1.97
  YS02001770           JUNCTION     1.76     1.95     8.44     0  02:06        1.95
  YS02001774           JUNCTION     1.82     2.00     8.42     0  03:12        1.99
  YS02001779           JUNCTION     1.55     1.68     8.37     0  01:26        1.68
  YS02001882           JUNCTION     0.86     1.77     8.49     0  01:32        1.64
  YS02001884           JUNCTION     0.95     1.85     8.46     0  01:32        1.74
  YS02001759           JUNCTION     1.88     2.12     8.49     0  02:56        2.11
  YS02001887           JUNCTION     1.03     1.87     8.41     0  01:32        1.82
  YS02001890           JUNCTION     1.05     1.81     8.32     0  01:32        1.81
  YS02001898           JUNCTION     0.82     1.57     8.30     0  01:33        1.56
  YS02001901           JUNCTION     0.93     1.68     8.29     0  01:33        1.67
  YS02001904           JUNCTION     0.91     1.65     8.28     0  01:33        1.64
  YS02001907           JUNCTION     1.23     1.96     8.25     0  01:33        1.96
  YS02001910           JUNCTION     1.03     1.98     8.49     0  01:33        1.92
  YS02001915           JUNCTION     0.84     1.92     8.63     0  01:33        1.84
  YS02001918           JUNCTION     0.56     1.81     8.88     0  01:33        1.71
  YS02001619           JUNCTION     1.34     1.61     8.54     0  01:27        1.53
  YS02001629           JUNCTION     1.69     1.85     8.40     0  01:27        1.85
  YS02001641           JUNCTION     1.78     1.96     8.40     0  01:29        1.93
  YS02001644           JUNCTION     1.78     1.92     8.35     0  01:29        1.92
  YS02001652           JUNCTION     1.66     2.03     8.63     0  01:29        1.89
  YS02001655           JUNCTION     1.42     1.96     8.81     0  01:29        1.67
  YS02001920           JUNCTION     0.66     2.10     9.11     0  01:33        1.78
  YS02001923           JUNCTION     0.47     2.01     9.27     0  01:33        1.53
  YS02001926           JUNCTION     0.47     1.90     9.35     0  01:33        1.35
  YS02001929           JUNCTION     0.31     1.78     9.47     0  01:33        1.12
  YS02001658           JUNCTION     1.16     1.89     9.03     0  01:29        1.41
  YS02001661           JUNCTION     0.92     1.86     9.27     0  01:29        1.16
  YS02001664           JUNCTION     0.43     0.69     8.62     0  01:30        0.69
  YS02001622           JUNCTION     1.36     1.62     8.52     0  01:27        1.54
  YS02001633           JUNCTION     1.78     1.98     8.43     0  01:29        1.94
  YS02001649           JUNCTION     1.85     2.05     8.44     0  01:29        2.05
  YS02001757           JUNCTION     1.98     2.21     8.47     0  02:23        2.21
  YS02001895           JUNCTION     0.81     1.57     8.31     0  01:51        1.56
  YS02001625           JUNCTION     1.64     1.78     8.38     0  01:27        1.78
  YS02163301           JUNCTION     1.72     1.90     8.42     0  01:29        1.89
  YS02163601           JUNCTION     1.83     2.04     8.43     0  01:29        1.99
  YS02164001           JUNCTION     1.77     1.96     8.42     0  01:29        1.91
  YS02001647           JUNCTION     1.63     1.80     8.41     0  01:29        1.79
  YSB1154              JUNCTION     0.30     0.65     9.70     0  01:34        0.65
  YSB6556              JUNCTION     0.19     0.53     9.70     0  01:33        0.53
  YSB1174              JUNCTION     0.25     0.59     9.70     0  01:33        0.59
  YSB1171              JUNCTION     0.45     0.80     9.70     0  01:34        0.80
  YS02006553           JUNCTION     1.23     1.97     8.26     0  01:50        1.97
  YS02006561           JUNCTION     0.52     1.27     7.93     0  01:32        1.09
  YS02006556           JUNCTION     1.20     1.94     8.25     0  01:52        1.94
  YS02006558           JUNCTION     1.24     1.99     8.26     0  01:32        1.98
  YS02001783           JUNCTION     0.80     1.67     7.81     0  01:32        1.47
  YS02001784           JUNCTION     0.79     1.64     7.71     0  01:32        1.42
  YS02001786           JUNCTION     0.70     1.89     7.92     0  01:32        1.26
  YS02001788           JUNCTION     0.61     2.28     8.26     0  01:32        1.13
  YS02001790           JUNCTION     0.75     1.96     7.60     0  05:00        1.29
  YS02001791           JUNCTION     0.72     1.65     7.12     0  05:00        1.27
  YS02001793           JUNCTION     1.01     2.60     7.43     0  04:58        1.80
  WSC                  OUTFALL      0.35     0.49     1.16     0  01:43        0.49
  JK-storage           STORAGE      3.68     5.80     6.60     0  01:32        5.80
  CC-storage           STORAGE      1.23     1.48     8.48     0  02:24        1.48
  XR-storage           STORAGE      7.13     7.72     5.72     0  01:49        7.72
  
  
  *******************
  Node Inflow Summary
  *******************
  
  -------------------------------------------------------------------------------------------------
                                  Maximum  Maximum                  Lateral       Total        Flow
                                  Lateral    Total  Time of Max      Inflow      Inflow     Balance
                                   Inflow   Inflow   Occurrence      Volume      Volume       Error
  Node                 Type           LPS      LPS  days hr:min    10^6 ltr    10^6 ltr     Percent
  -------------------------------------------------------------------------------------------------
  WS02001211           JUNCTION      7.35   390.72     0  03:21       0.207        10.5       0.386
  WS02001212           JUNCTION      0.00   394.00     0  03:21           0        10.4       0.237
  WS02001213           JUNCTION      0.00   396.90     0  03:21           0        10.4       0.281
  WS02003069           JUNCTION      0.32  1379.05     0  01:42     0.00902        20.9       0.188
  WS02003072           JUNCTION      0.00  1379.18     0  01:43           0        20.9       0.217
  WS02003073           JUNCTION      1.82  1380.83     0  01:44      0.0514        20.9       0.248
  WS02003060           JUNCTION     16.53  1379.30     0  01:42       0.466          21       0.179
  WS02003066           JUNCTION      0.00  1000.25     0  01:35           0        10.2       0.057
  WS02003059           JUNCTION      0.00   400.76     0  03:21           0        10.4       0.404
  WS02003067           JUNCTION      0.00   995.56     0  01:35           0        10.2       0.111
  WS02004401           JUNCTION      0.00  1016.70     0  01:34           0        10.5       0.258
  WS02004402           JUNCTION      0.00  1017.15     0  01:34           0        10.4       0.238
  WS02004403           JUNCTION      0.00  1018.23     0  01:34           0        10.4       0.210
  WS02004404           JUNCTION      0.16  1018.68     0  01:34     0.00457        10.4       0.152
  WS02004406           JUNCTION      0.00  1019.97     0  01:34           0        10.4       0.369
  WS02004409           JUNCTION      0.00  1017.32     0  01:34           0        10.3       0.226
  WS02004410           JUNCTION      0.00  1007.79     0  01:34           0        10.3       0.245
  WS02004411           JUNCTION      0.00   993.42     0  01:36           0        10.3       0.244
  WS02004412           JUNCTION      0.00   994.04     0  01:36           0        10.2       0.253
  WS02004413           JUNCTION      0.00   995.13     0  01:35           0        10.2       0.357
  WS02004405           JUNCTION      0.04  1019.51     0  01:34     0.00107        10.4       0.226
  WS02006109           JUNCTION      1.23   977.86     0  01:34      0.0347        10.4       0.156
  WS02006110           JUNCTION      0.00   977.91     0  01:34           0        10.4       0.234
  WS02006111           JUNCTION      0.00   977.56     0  01:34           0        10.4       0.056
  WS02006112           JUNCTION     39.49  1015.98     0  01:34       0.169        10.5       0.327
  WS02006113           JUNCTION      0.00   977.81     0  01:34           0        10.4       0.139
  WS02006115           JUNCTION      0.00  1015.77     0  01:34           0        10.5       0.264
  WS02006116           JUNCTION      0.00  1015.84     0  01:34           0        10.5       0.236
  WS02006230           JUNCTION     10.28   533.33     0  07:43        0.29        6.02       0.278
  WS02006231           JUNCTION      0.00   523.61     0  07:43           0        5.73       0.236
  WS02006232           JUNCTION      0.00   523.41     0  07:43           0        5.72       0.349
  WS02006234           JUNCTION      0.00   523.28     0  07:43           0         5.7       0.173
  WS02006235           JUNCTION      0.00   523.54     0  07:43           0        5.89       0.215
  WS02006238           JUNCTION      0.00   327.49     0  07:45           0        2.15       0.401
  WS02006240           JUNCTION      0.00   327.49     0  07:45           0        2.09       0.771
  WS02006242           JUNCTION      0.00   327.49     0  07:45           0        2.07       0.932
  WS02006243           JUNCTION      0.00   327.62     0  07:43           0        2.06       0.837
  WS02006245           JUNCTION      0.00   328.18     0  07:43           0        2.05       0.732
  WS02006247           JUNCTION      0.00   340.89     0  05:30           0        2.05       0.576
  WS02006248           JUNCTION      0.00   358.56     0  05:30           0         2.1       0.412
  WS02006249           JUNCTION      0.00   523.77     0  03:00           0        2.58       0.653
  WS02006239           JUNCTION      0.00   327.49     0  07:45           0        2.12       0.573
  WS02006251           JUNCTION      0.08   520.43     0  03:00     0.00217        2.62       0.692
  WS02006252           JUNCTION      0.00   400.00     0  07:40           0        1.68       0.048
  WS02006253           JUNCTION      5.06   268.60     0  01:31      0.0186       0.948       1.518
  WS02006256           JUNCTION      0.00   983.00     0  01:40           0        14.1       0.001
  WS02004138           JUNCTION      0.00   380.00     0  00:00           0        10.3       0.066
  WS02004139           JUNCTION      0.32   394.45     0  00:00     0.00905        10.3       0.441
  WS02004407           JUNCTION      0.00  1021.07     0  01:34           0        10.3       0.102
  WS02006228           JUNCTION      0.00   976.72     0  01:34           0        10.4       0.138
  WS02006229           JUNCTION      0.00  1053.37     0  01:32           0        10.5       0.172
  WS02006280           JUNCTION      0.00   937.75     0  01:34           0        4.56       0.015
  WS02006284           JUNCTION      0.10   934.63     0  01:35      0.0027        4.56       0.019
  WS02006287           JUNCTION      0.00   934.64     0  01:35           0        4.56       0.019
  WSF200               JUNCTION      0.00  1001.13     0  01:36           0        10.2       0.062
  HS02004901           JUNCTION     48.29    48.29     0  01:31       0.205       0.205       0.867
  HS02004881           JUNCTION     19.22   195.63     0  01:33      0.0766       0.897       0.062
  HS02004876           JUNCTION     33.98   176.89     0  01:34       0.149       0.821       0.068
  HS02004870           JUNCTION     35.26   143.34     0  01:34       0.145       0.672       0.017
  HS02004862           JUNCTION     32.69   109.55     0  01:35       0.175       0.527       0.033
  HS02004856           JUNCTION     26.33    76.92     0  01:35       0.109       0.354       0.407
  HS02004852           JUNCTION      0.00    51.63     0  01:36           0       0.245       0.025
  HS02004848           JUNCTION     70.76    70.76     0  01:38         0.4         0.4       0.013
  HS02004842           JUNCTION      0.00    21.86     0  01:49           0       0.168       8.373
  HS02004837           JUNCTION     65.09    82.02     0  01:35       0.431       0.586       0.138
  HS02004830           JUNCTION      0.15    82.12     0  01:35     0.00423       0.576       0.215
  HS02004824           JUNCTION     81.60   164.06     0  01:39       0.463        1.04       0.052
  HS02004817           JUNCTION      0.60   166.60     0  01:39      0.0169        1.05       1.605
  HS02004807           JUNCTION     65.28   225.45     0  01:36       0.265         1.3       0.343
  HS02004802           JUNCTION      0.00   226.44     0  01:37           0         1.3       0.298
  HS02004799           JUNCTION     51.81   605.47     0  01:33       0.216        2.82       0.117
  HS02004792           JUNCTION    235.75   554.35     0  01:33        1.13        2.61       0.015
  HS02004788           JUNCTION     75.68   319.93     0  01:33       0.386        1.48       0.026
  HS02004785           JUNCTION      0.15   244.47     0  01:33     0.00423         1.1       0.047
  HS02004777           JUNCTION      0.03   244.67     0  01:32    0.000846         1.1       0.479
  HS02004770           JUNCTION    197.86   245.55     0  01:32       0.896         1.1       0.279
  HS02004480           JUNCTION      0.00   713.05     0  01:33           0        3.27       0.024
  HS02004479           JUNCTION      0.00   107.72     0  01:33           0       0.464       0.161
  HS02004478           JUNCTION      0.00   934.56     0  01:35           0        4.56       0.007
  YS02001745           JUNCTION    667.30   667.30     0  03:01        5.93        5.93       0.188
  YS02001748           JUNCTION      0.04   667.47     0  03:01     0.00127        5.92       0.382
  YS02001751           JUNCTION      0.01   667.72     0  03:01     0.00031         5.9       0.411
  YS02001754           JUNCTION      0.26   668.54     0  03:01     0.00733        5.89       0.415
  YS02001762           JUNCTION      0.00   370.14     0  01:35           0         3.4       0.627
  YS02001765           JUNCTION      0.00   369.67     0  01:35           0         3.4       0.722
  YS02001767           JUNCTION      0.54   370.22     0  01:35      0.0151        3.42       1.049
  YS02001770           JUNCTION    751.30  1098.09     0  03:01        6.45        8.74       0.358
  YS02001774           JUNCTION      0.00   852.15     0  02:56           0        7.12       0.348
  YS02001779           JUNCTION      0.01   851.79     0  02:57    0.000141        7.09       0.219
  YS02001882           JUNCTION      0.00    40.92     0  01:30           0      0.0209      13.360
  YS02001884           JUNCTION      0.00    60.19     0  01:29           0      0.0572      12.933
  YS02001759           JUNCTION    717.99   898.46     0  01:42        6.03        7.11       0.319
  YS02001887           JUNCTION    814.61   815.86     0  01:56        6.69        6.72       0.130
  YS02001890           JUNCTION      0.00   815.88     0  01:57           0        6.67       0.147
  YS02001898           JUNCTION      0.00   595.49     0  01:32           0        5.38       0.049
  YS02001901           JUNCTION      0.00   599.57     0  01:32           0        5.38       0.143
  YS02001904           JUNCTION      0.00   599.69     0  01:32           0        5.38       0.124
  YS02001907           JUNCTION      0.00  1428.06     0  03:01           0          14       0.179
  YS02001910           JUNCTION      0.00   911.42     0  03:01           0         8.6       0.141
  YS02001915           JUNCTION    557.90   911.27     0  03:01        4.87        8.65       0.077
  YS02001918           JUNCTION      0.00   429.97     0  01:32           0        3.81       0.048
  YS02001619           JUNCTION    574.80   574.80     0  03:01        5.02        5.02       0.243
  YS02001629           JUNCTION      0.00   278.22     0  01:26           0        2.09       1.371
  YS02001641           JUNCTION      0.00   457.55     0  01:28           0        6.14       0.348
  YS02001644           JUNCTION    644.82  1924.65     0  03:01        5.75        20.8       0.128
  YS02001652           JUNCTION      0.00   639.60     0  03:01           0        5.22       0.438
  YS02001655           JUNCTION      0.15   639.40     0  03:01     0.00434        5.24       0.487
  YS02001920           JUNCTION      2.87   403.67     0  01:33      0.0809        3.79       0.085
  YS02001923           JUNCTION      0.04   401.90     0  01:33     0.00106        3.69       0.050
  YS02001926           JUNCTION      0.05   464.08     0  01:33     0.00147        3.66       0.079
  YS02001929           JUNCTION    352.81   352.81     0  03:01        3.64        3.65       0.008
  YS02001658           JUNCTION      0.00   639.00     0  03:01           0        5.26       0.469
  YS02001661           JUNCTION      0.00   786.28     0  01:41           0        5.52      -0.033
  YS02001664           JUNCTION    638.31   638.31     0  03:01        5.26        5.53       0.097
  YS02001622           JUNCTION      0.00   574.85     0  03:01           0        5.01       0.628
  YS02001633           JUNCTION    658.84   658.84     0  03:01        5.91        7.08       0.451
  YS02001649           JUNCTION      0.00  1425.88     0  02:58           0        12.1       0.305
  YS02001757           JUNCTION      0.00  2183.84     0  01:41           0        12.2       0.755
  YS02001895           JUNCTION      0.00   592.10     0  01:32           0        5.39       0.118
  YS02001625           JUNCTION      0.00   801.38     0  03:01           0        5.86       0.683
  YS02163301           JUNCTION      0.00   278.03     0  01:26           0        2.09       1.151
  YS02163601           JUNCTION      0.11   457.57     0  01:28      0.0031        6.14       0.491
  YS02164001           JUNCTION      0.00   456.50     0  01:28           0        6.13       0.321
  YS02001647           JUNCTION      0.00   846.70     0  02:53           0        9.46       0.301
  YSB1154              JUNCTION     59.56    59.56     0  01:33        0.26        0.26       0.556
  YSB6556              JUNCTION      0.00    59.44     0  01:33           0       0.261       0.488
  YSB1174              JUNCTION     51.10    51.10     0  01:30       0.195       0.195       0.658
  YSB1171              JUNCTION      0.00   108.27     0  01:32           0       0.462       1.394
  YS02006553           JUNCTION      0.00   731.83     0  04:02           0        7.59       0.212
  YS02006561           JUNCTION      0.00  1066.74     0  01:32           0        13.8       0.006
  YS02006556           JUNCTION      0.00   731.98     0  04:02           0        7.59       0.155
  YS02006558           JUNCTION    751.16  1065.79     0  01:32        6.28        13.8       0.036
  YS02001783           JUNCTION      0.00  1023.98     0  01:31           0        13.8       0.019
  YS02001784           JUNCTION      1.06  1025.30     0  01:31      0.0299        13.8       0.030
  YS02001786           JUNCTION      0.06  1025.40     0  01:31     0.00159        13.8       0.029
  YS02001788           JUNCTION      0.07  1010.33     0  01:31       0.002        13.8       0.016
  YS02001790           JUNCTION      0.15   984.10     0  02:57     0.00437        13.8       0.013
  YS02001791           JUNCTION      0.00   984.03     0  02:53           0        13.8       0.011
  YS02001793           JUNCTION      0.00   984.51     0  02:56           0        13.8      -0.013
  WSC                  OUTFALL       0.00  1381.65     0  01:43           0        20.8       0.000
  JK-storage           STORAGE       0.00  1027.95     0  01:30           0          14      -6.965
  CC-storage           STORAGE       0.00  2183.42     0  01:41           0         5.6       1.138
  XR-storage           STORAGE    1680.85  1680.85     0  03:01        21.3        21.9      -0.004
  
  
  **********************
  Node Surcharge Summary
  **********************
  
  Surcharging occurs when water rises above the top of the highest conduit.
  ---------------------------------------------------------------------
                                               Max. Height   Min. Depth
                                   Hours       Above Crown    Below Rim
  Node                 Type      Surcharged         Meters       Meters
  ---------------------------------------------------------------------
  WS02004401           JUNCTION        1.77          0.456        1.204
  WS02004402           JUNCTION        1.79          0.407        1.333
  WS02004403           JUNCTION        1.79          0.357        1.673
  WS02004404           JUNCTION        1.87          0.392        2.388
  WS02004406           JUNCTION        1.84          0.249        2.201
  WS02004409           JUNCTION        0.13          0.044        2.316
  WS02004410           JUNCTION        0.01          0.006        2.534
  WS02004413           JUNCTION        0.84          0.049        2.151
  WS02004405           JUNCTION        1.86          0.352        2.448
  WS02006109           JUNCTION        3.06          1.093        0.727
  WS02006110           JUNCTION        2.09          0.884        0.966
  WS02006111           JUNCTION        0.65          0.535        1.335
  WS02006112           JUNCTION        2.12          0.906        0.774
  WS02006113           JUNCTION        0.72          0.581        1.349
  WS02006115           JUNCTION        1.33          0.512        1.738
  WS02006116           JUNCTION        1.41          0.474        1.816
  WS02006230           JUNCTION        1.99          1.053        0.517
  WS02006231           JUNCTION        2.09          1.030        0.500
  WS02006232           JUNCTION        2.97          1.113        0.367
  WS02006234           JUNCTION        2.28          0.959        0.281
  WS02006235           JUNCTION        2.57          0.957        0.333
  WS02006238           JUNCTION        2.63          0.967        0.463
  WS02006240           JUNCTION        2.18          0.787        0.603
  WS02006242           JUNCTION        2.20          0.765        0.055
  WS02006243           JUNCTION        2.07          0.615        0.155
  WS02006245           JUNCTION        1.79          0.530        0.320
  WS02006247           JUNCTION        1.72          0.505        0.255
  WS02006248           JUNCTION        1.44          0.380        0.000
  WS02006249           JUNCTION        1.46          0.390        0.000
  WS02006239           JUNCTION        2.25          0.858        0.432
  WS02006251           JUNCTION        1.02          0.379        0.801
  WS02006252           JUNCTION        1.43          0.475        0.625
  WS02006253           JUNCTION        1.15          0.900        1.580
  WS02006256           JUNCTION        6.66          2.050        0.000
  WS02006228           JUNCTION        3.02          1.275        0.925
  WS02006229           JUNCTION        0.01          0.020        1.050
  HS02004817           JUNCTION        0.46          0.066        1.674
  YS02001745           JUNCTION        0.96          0.240        1.110
  YS02001748           JUNCTION        6.35          0.776        0.414
  YS02001751           JUNCTION        6.36          0.722        0.478
  YS02001754           JUNCTION        6.38          0.846        0.304
  YS02001762           JUNCTION        6.40          1.080        0.070
  YS02001765           JUNCTION        6.40          1.029        0.071
  YS02001767           JUNCTION        6.39          0.979        0.051
  YS02001770           JUNCTION        6.39          0.920        0.000
  YS02001774           JUNCTION        6.40          1.000        0.050
  YS02001779           JUNCTION        6.37          0.680        0.000
  YS02001882           JUNCTION        2.55          0.775        0.055
  YS02001884           JUNCTION        2.56          0.786        0.084
  YS02001759           JUNCTION        6.41          1.121        0.089
  YS02001887           JUNCTION        2.62          0.819        0.131
  YS02001890           JUNCTION        2.64          0.760        0.000
  YS02001898           JUNCTION        2.52          0.539        0.201
  YS02001901           JUNCTION        2.59          0.683        0.187
  YS02001904           JUNCTION        2.58          0.645        0.205
  YS02001907           JUNCTION        3.13          0.950        0.000
  YS02001910           JUNCTION        2.68          0.981        0.119
  YS02001915           JUNCTION        2.54          0.915        0.085
  YS02001918           JUNCTION        2.40          0.810        0.000
  YS02001619           JUNCTION        6.37          0.610        0.000
  YS02001629           JUNCTION        6.37          0.470        0.000
  YS02001641           JUNCTION        6.40          0.958        0.142
  YS02001644           JUNCTION        6.40          0.920        0.000
  YS02001652           JUNCTION        6.38          1.004        0.126
  YS02001655           JUNCTION        6.37          0.963        0.237
  YS02001920           JUNCTION        2.42          1.104        0.036
  YS02001923           JUNCTION        0.01          0.805        0.015
  YS02001926           JUNCTION        0.01          0.900        0.000
  YS02001929           JUNCTION        0.01          0.780        0.000
  YS02001658           JUNCTION        6.35          0.887        0.413
  YS02001661           JUNCTION        1.47          0.792        0.598
  YS02001622           JUNCTION        6.37          0.620        0.000
  YS02001633           JUNCTION        6.40          0.960        0.100
  YS02001649           JUNCTION        6.40          1.050        0.000
  YS02001757           JUNCTION        6.42          1.210        0.000
  YS02001895           JUNCTION        2.53          0.567        0.183
  YS02001625           JUNCTION        6.38          0.780        0.000
  YS02163301           JUNCTION        6.39          0.901        0.129
  YS02163601           JUNCTION        6.40          1.035        0.045
  YS02164001           JUNCTION        6.40          0.961        0.139
  YS02001647           JUNCTION        6.38          0.798        0.102
  YS02006553           JUNCTION        3.22          0.973        0.217
  YS02006561           JUNCTION        2.43          0.467        0.683
  YS02006556           JUNCTION        2.84          0.901        0.449
  YS02006558           JUNCTION        2.82          0.889        0.511
  YS02001783           JUNCTION        2.64          0.869        0.731
  YS02001784           JUNCTION        2.60          0.839        0.651
  YS02001786           JUNCTION        2.52          1.091        0.339
  YS02001788           JUNCTION        2.47          1.480        0.000
  YS02001790           JUNCTION        3.43          1.157        0.000
  YS02001791           JUNCTION        3.51          0.847        1.073
  YS02001793           JUNCTION        3.75          1.600        1.000
  
  
  *********************
  Node Flooding Summary
  *********************
  
  Flooding refers to all water that overflows a node, whether it ponds or not.
  --------------------------------------------------------------------------
                                                             Total   Maximum
                                 Maximum   Time of Max       Flood    Ponded
                        Hours       Rate    Occurrence      Volume     Depth
  Node                 Flooded       LPS   days hr:min    10^6 ltr    Meters
  --------------------------------------------------------------------------
  WS02006248              0.42    151.58      0  01:39       0.139     0.000
  WS02006249              1.13    385.23      0  03:00       0.568     0.000
  WS02006256              4.89    834.97      0  01:40      10.220     0.000
  YS02001770              1.09    246.83      0  03:01       0.469     0.000
  YS02001779              4.48    851.49      0  02:57       7.072     0.000
  YS02001890              1.75    299.12      0  01:57       1.275     0.000
  YS02001907              2.27   1197.59      0  03:01       6.358     0.000
  YS02001918              0.01     85.24      0  01:33       0.000     0.000
  YS02001619              0.01     96.66      0  01:27       0.000     0.000
  YS02001629              0.01    233.31      0  01:27       0.002     0.000
  YS02001644              6.20   1924.48      0  03:01      20.182     0.000
  YS02001926              0.01     13.61      0  01:33       0.000     0.000
  YS02001929              0.01    258.16      0  01:33       0.001     0.000
  YS02001622              0.01    111.67      0  01:27       0.000     0.000
  YS02001649              1.44    579.14      0  02:58       1.820     0.000
  YS02001757              0.45    144.21      0  02:53       0.111     0.000
  YS02001625              3.01    801.25      0  03:01       4.633     0.000
  YS02001788              0.01    105.36      0  01:32       0.000     0.000
  YS02001790              0.01    210.68      0  05:00       0.000     0.000
  JK-storage              0.86    694.99      0  01:32       0.867     0.000
  XR-storage              6.01   1300.54      0  03:01      10.683     0.000
  
  
  **********************
  Storage Volume Summary
  **********************
  
  --------------------------------------------------------------------------------------------------
                         Average     Avg  Evap Exfil       Maximum     Max    Time of Max    Maximum
                          Volume    Pcnt  Pcnt  Pcnt        Volume    Pcnt     Occurrence    Outflow
  Storage Unit           1000 m3    Full  Loss  Loss       1000 m3    Full    days hr:min        LPS
  --------------------------------------------------------------------------------------------------
  JK-storage               0.185      63     0     0         0.291     100       0  01:32     983.00
  CC-storage               3.427      22     0     0         4.125      26       0  02:24     400.00
  XR-storage               0.855      92     0     0         0.926     100       0  01:49     380.00
  
  
  ***********************
  Outfall Loading Summary
  ***********************
  
  ---------------------------------------------------------------------------------------------------------------------------------
                         Flow       Avg       Max       Total         Total         Total         Total         Total         Total
                         Freq      Flow      Flow      Volume           COD            SS            TN            TP         NH4-N
  Outfall Node           Pcnt       LPS       LPS    10^6 ltr            kg            kg            kg            kg            kg
  ---------------------------------------------------------------------------------------------------------------------------------
  WSC                   99.99    799.35   1381.65      20.842      2637.299      4818.964       130.856        14.600        76.925
  ---------------------------------------------------------------------------------------------------------------------------------
  System                99.99    799.35   1381.65      20.842      2637.299      4818.964       130.856        14.600        76.925
  
  
  ********************
  Link Flow Summary
  ********************
  
  -----------------------------------------------------------------------------
                                 Maximum  Time of Max   Maximum    Max/    Max/
                                  |Flow|   Occurrence   |Veloc|    Full    Full
  Link                 Type          LPS  days hr:min     m/sec    Flow   Depth
  -----------------------------------------------------------------------------
  WS02003066WSF200     CONDUIT   1001.13     0  01:36      3.05    0.17    0.33
  WS02006287WS02006284 CONDUIT    934.54     0  01:35      2.63    0.43    0.46
  WS02006284WS02006280 CONDUIT    937.75     0  01:34      2.86    0.39    0.44
  WS02006280WS02006229 CONDUIT    969.04     0  01:34      4.53    0.21    0.75
  WS02006229WS02006228 CONDUIT    976.72     0  01:34      1.94    3.23    1.00
  WS02006256WS02006235 CONDUIT    264.10     0  00:22      3.74    2.80    1.00
  WS02006253WS02006251 CONDUIT    262.55     0  01:32      0.83    0.79    1.00
  WS02006252WS02006251 CONDUIT    404.43     0  07:42      3.22    1.48    1.00
  WS02006251WS02006249 CONDUIT    523.77     0  03:00      1.36    1.51    1.00
  WS02006249WS02006248 CONDUIT    358.56     0  05:30      1.12    1.96    1.00
  WS02006248WS02006247 CONDUIT    340.89     0  05:30      1.06    0.74    1.00
  WS02006247WS02006245 CONDUIT    328.18     0  07:43      0.97    2.60    1.00
  WS02006245WS02006243 CONDUIT    327.62     0  07:43      1.05    0.97    1.00
  WS02006243WS02006242 CONDUIT    327.49     0  07:45      0.90    0.70    1.00
  WS02006242WS02006240 CONDUIT    327.49     0  07:45      0.88    1.30    1.00
  WS02006240WS02006239 CONDUIT    327.49     0  07:45      0.92    1.03    1.00
  WS02006239WS02006238 CONDUIT    327.49     0  07:45      0.85    1.05    1.00
  WS02006238WS02006235 CONDUIT    328.46     0  07:43      1.05    0.73    1.00
  WS02006235WS02006234 CONDUIT    523.28     0  07:43      1.36    5.52    1.00
  WS02006234WS02006232 CONDUIT    523.41     0  07:43      1.36    1.06    1.00
  WS02006232WS02006231 CONDUIT    523.61     0  07:43      1.36    1.10    1.00
  WS02006231WS02006230 CONDUIT    523.05     0  07:43      1.36    7.93    1.00
  WS02006230WS02006229 CONDUIT    533.92     0  07:44      1.39   11.88    1.00
  WS02006228WS02006109 CONDUIT    976.63     0  01:34      1.94    4.27    1.00
  WS02006116WS02004401 CONDUIT   1016.70     0  01:34      1.29    1.40    1.00
  WS02006115WS02006116 CONDUIT   1015.84     0  01:34      1.29    1.30    1.00
  WS02006113WS02006111 CONDUIT    977.56     0  01:34      2.65    1.17    1.00
  WS02006112WS02006115 CONDUIT   1015.77     0  01:34      1.29    0.60    1.00
  WS02006111WS02006112 CONDUIT    977.37     0  01:34      1.94    0.46    1.00
  WS02006110WS02006113 CONDUIT    977.81     0  01:34      1.95    0.89    1.00
  WS02006109WS02006110 CONDUIT    977.91     0  01:34      1.95    1.88    1.00
  WS02004411WS02004412 CONDUIT    994.04     0  01:36      1.29    1.41    0.96
  WS02004401WS02004402 CONDUIT   1017.15     0  01:34      1.30    1.22    1.00
  WS02004413WS02003067 CONDUIT    995.56     0  01:35      1.63    0.43    0.73
  WS02004412WS02004413 CONDUIT    995.13     0  01:35      1.28    0.67    0.97
  WS02004410WS02004411 CONDUIT    993.42     0  01:36      1.27    1.36    0.99
  WS02004409WS02004410 CONDUIT   1007.79     0  01:34      1.28    1.30    1.00
  WS02004407WS02004409 CONDUIT   1017.32     0  01:34      1.85    0.36    0.71
  WS02004406WS02004407 CONDUIT   1021.07     0  01:34      1.72    0.46    0.71
  WS02004405WS02004406 CONDUIT   1019.97     0  01:34      1.30    2.01    1.00
  WS02004404WS02004405 CONDUIT   1019.47     0  01:34      1.30    9.99    1.00
  WS02004403WS02004404 CONDUIT   1018.52     0  01:34      1.30    0.74    1.00
  WS02004402WS02004403 CONDUIT   1018.23     0  01:34      1.30    1.46    1.00
  WS02004139WS02001211 CONDUIT    383.38     0  03:21      0.90    0.48    0.65
  WS02004138WS02004139 CONDUIT    394.13     0  00:00      3.62    0.08    0.47
  WS02003067WS02003066 CONDUIT   1000.25     0  01:35      1.71    0.32    0.52
  WS02001213WS02003059 CONDUIT    400.76     0  03:21      0.89    0.66    0.88
  WS02001212WS02001213 CONDUIT    396.90     0  03:21      1.32    0.61    0.57
  WS02001211WS02001212 CONDUIT    394.00     0  03:21      0.78    0.30    0.72
  WS02003072WS02003073 CONDUIT   1379.01     0  01:44      1.99    2.98    0.59
  WS02003069WS02003072 CONDUIT   1379.18     0  01:43      1.84    0.66    0.63
  WS02003060WS02003069 CONDUIT   1378.73     0  01:42      2.04    0.54    0.58
  WS02003059WS02003060 CONDUIT    405.96     0  03:20      0.95    0.27    0.79
  HS02004901HS02004770 CONDUIT     47.75     0  01:32      0.11    0.18    0.61
  HS02004876HS02004881 CONDUIT    176.92     0  01:35      1.41    1.88    0.19
  HS02004870HS02004876 CONDUIT    143.30     0  01:35      0.95    0.10    0.22
  HS02004842HS02004848 CONDUIT     21.86     0  01:49      0.09    0.01    0.35
  HS02004837HS02004842 CONDUIT     22.38     0  01:49      0.42    0.01    0.37
  HS02004830HS02004837 CONDUIT     81.97     0  01:35      0.70    0.08    0.18
  HS02004824HS02004830 CONDUIT     82.89     0  01:37      0.63    0.11    0.25
  HS02004817HS02004824 CONDUIT    166.00     0  01:39      0.37    0.07    0.64
  HS02004770HS02004777 CONDUIT    244.64     0  01:32      0.57    0.45    0.62
  HS02004799HS02004480 CONDUIT    605.42     0  01:33      1.21    0.76    0.71
  HS02004792HS02004799 CONDUIT    554.25     0  01:33      1.36    0.34    0.58
  HS02004788HS02004792 CONDUIT    319.85     0  01:34      1.40    0.21    0.33
  HS02004785HS02004788 CONDUIT    244.45     0  01:33      1.02    1.84    0.34
  HS02004777HS02004785 CONDUIT    244.32     0  01:33      0.67    0.30    0.52
  HS02004480HS02004478 CONDUIT    712.97     0  01:33      1.74    3.00    0.59
  HS02004479HS02004480 CONDUIT    107.66     0  01:33      0.45    0.10    0.68
  HS02004862HS02004870 CONDUIT    109.57     0  01:36      0.90    0.12    0.17
  HS02004848HS02004852 CONDUIT     51.63     0  01:36      0.58    0.06    0.13
  HS02004856HS02004862 CONDUIT     76.86     0  01:35      0.67    0.08    0.16
  HS02004852HS02004856 CONDUIT     51.73     0  01:36      0.39    0.06    0.19
  HS02004802HS02004478 CONDUIT    227.64     0  01:38      0.57    0.20    0.58
  HS02004478WS02006287 CONDUIT    934.64     0  01:35      2.37    0.26    0.44
  HS02004817HS02004807 CONDUIT    166.68     0  01:39      0.30    0.10    0.81
  HS02004807HS02004802 CONDUIT    226.44     0  01:37      0.51    0.43    0.64
  YS02001759YS02001757 CONDUIT    897.91     0  01:42      1.14    0.64    1.00
  YS02001762YS02001759 CONDUIT    370.07     0  01:35      0.47    0.43    1.00
  YS02001765YS02001762 CONDUIT    370.14     0  01:35      0.47    0.35    1.00
  YS02001770YS02001767 CONDUIT    369.69     0  01:35      0.50    1.46    1.00
  YS02001774YS02001770 CONDUIT    852.15     0  02:56      1.08    0.54    1.00
  YS02001779YS02001774 CONDUIT    851.79     0  02:57      1.08    0.43    1.00
  YS02001649YS02001757 CONDUIT    887.51     0  01:40      1.13    0.54    1.00
  YS02001767YS02001765 CONDUIT    369.67     0  01:35      0.48    0.46    1.00
  YS02006561YS02001783 CONDUIT   1023.98     0  01:31      2.27    0.53    1.00
  YS02001783YS02001784 CONDUIT   1024.24     0  01:31      2.04    1.41    1.00
  YS02001784YS02001785 CONDUIT   1025.34     0  01:31      2.07    2.39    1.00
  YS02001788YS02001790 CONDUIT    983.94     0  02:57      2.48    0.73    1.00
  YS02001790YS02001791 CONDUIT    984.03     0  02:53      2.97    1.07    1.00
  YS02001791YS02001793 CONDUIT    984.51     0  02:56      5.82    0.42    1.00
  YS02001910YS02001907 CONDUIT    911.72     0  03:01      1.16    0.51    1.00
  YS02001786YS02001788 CONDUIT   1010.26     0  01:31      2.31    1.95    1.00
  YS02001915YS02001910 CONDUIT    911.42     0  03:01      1.16    0.45    1.00
  YS02001918YS02001915 CONDUIT    429.97     0  01:32      0.56    0.24    1.00
  YS02001923YS02001920 CONDUIT    401.87     0  01:33      0.91    0.18    1.00
  YS02001926YS02001923 CONDUIT    464.03     0  01:33      1.00    0.66    1.00
  YS02001929YS02001926 CONDUIT    352.36     0  03:01      1.07    0.17    1.00
  YS02001920YS02001918 CONDUIT    400.80     0  01:33      0.84    0.39    1.00
  YS02001629YS02163301 CONDUIT    278.22     0  01:26      0.35    0.34    1.00
  YS02001619YS02001622 CONDUIT    574.85     0  03:01      0.86    0.85    1.00
  YS02001622YS02001625 CONDUIT    575.13     0  03:01      0.73    0.31    1.00
  YS02001625YS02001629 CONDUIT    259.02     0  01:26      0.40    0.12    1.00
  YS02163301YS02001633 CONDUIT    278.03     0  01:26      0.35    0.26    1.00
  YS02163601YS02164001 CONDUIT    456.50     0  01:28      0.58    0.40    1.00
  YS02164001YS02001641 CONDUIT    457.55     0  01:28      0.58    0.62    1.00
  YS02001641YS02001644 CONDUIT    459.16     0  01:28      0.58    1.48    1.00
  YS02001647YS02001649 CONDUIT    846.70     0  02:53      1.08    0.45    1.00
  YS02006553YS02006556 CONDUIT    731.98     0  04:02      0.93    0.63    1.00
  YS02006556YS02006558 CONDUIT    732.26     0  04:02      0.93    0.58    1.00
  YSB6556YSB1171       CONDUIT     59.52     0  01:34      0.17    0.06    0.88
  YS02001907YS02006553 CONDUIT    731.83     0  04:02      0.81    0.86    1.00
  YS02006558YS02006561 CONDUIT   1066.74     0  01:32      3.78    2.36    1.00
  YS02001633YS02163601 CONDUIT    457.46     0  01:28      0.58    0.48    1.00
  YS02001644YS02001647 CONDUIT    846.70     0  02:53      1.08    0.50    1.00
  YS02001745YS02001748 CONDUIT    667.43     0  03:01      1.86    0.26    1.00
  YS02001748YS02001751 CONDUIT    667.71     0  03:01      1.39    0.34    1.00
  YS02001751YS02001754 CONDUIT    668.28     0  03:01      1.15    0.32    1.00
  YS02001754YS02001757 CONDUIT    668.98     0  03:01      0.85    0.27    1.00
  YS02001882YS02001884 CONDUIT     40.92     0  01:30      0.22    0.05    1.00
  YS02001884YS02001887 CONDUIT     60.19     0  01:29      0.16    0.08    1.00
  YS02001890YS02001895 CONDUIT    592.10     0  01:32      0.75    0.28    1.00
  YS02001895YS02001898 CONDUIT    595.49     0  01:32      0.76    1.03    1.00
  YS02001898YS02001901 CONDUIT    599.57     0  01:32      0.76    0.39    1.00
  YS02001901YS02001904 CONDUIT    599.69     0  01:32      0.76    0.93    1.00
  YS02001904YS02001907 CONDUIT    599.74     0  01:32      0.76    0.21    1.00
  YS02001887YS02001890 CONDUIT    815.88     0  01:57      1.04    1.40    1.00
  YS02001652YS02001649 CONDUIT    639.71     0  03:01      0.84    0.32    1.00
  YS02001655YS02001652 CONDUIT    639.60     0  03:01      1.25    0.31    1.00
  YS02001658YS02001655 CONDUIT    639.25     0  03:01      1.61    0.27    1.00
  YS02001661YS02001658 CONDUIT    639.00     0  03:01      1.99    0.25    1.00
  YS02001664YS02001661 CONDUIT    786.28     0  01:41      1.90    0.25    0.85
  YSB1154YSB6556       CONDUIT     59.44     0  01:33      0.17    0.11    0.84
  YSB1174YSB1171       CONDUIT     50.32     0  01:30      0.14    0.08    0.92
  YSB1171HS02004479    CONDUIT    107.72     0  01:33      0.54    0.07    0.78
  HS02004881HS02006253 CONDUIT    258.56     0  01:32      2.76    0.05    0.56
  YS02001793JiankangQianchi CONDUIT   1027.95     0  01:30     16.76    0.08    1.00
  YS02001757CaochengTiaoxuchi CONDUIT   2183.42     0  01:41      3.80    0.96    1.00
  WSF200WS02003060     CONDUIT   1004.77     0  01:36      2.04    0.22    0.46
  1                    CONDUIT   1381.65     0  01:43      3.62    0.48    0.49
  CC-Pump-1            PUMP       200.00     0  03:00              1.00
  CC-Pump-2            PUMP       200.00     0  07:40              1.00
  JK-Pump-1            PUMP       300.00     0  01:40              1.00
  JK-Pump-2            PUMP       683.00     0  01:40              1.00
  XR-Pump-1            PUMP        95.00     0  00:00              1.00
  XR-Pump-2            PUMP        95.00     0  00:00              1.00
  XR-Pump-3            PUMP        95.00     0  00:00              1.00
  XR-Pump-4            PUMP        95.00     0  00:00              1.00
  
  
  ***************************
  Flow Classification Summary
  ***************************
  
  -------------------------------------------------------------------------------------
                      Adjusted    ---------- Fraction of Time in Flow Class ---------- 
                       /Actual         Up    Down  Sub   Sup   Up    Down  Norm  Inlet 
  Conduit               Length    Dry  Dry   Dry   Crit  Crit  Crit  Crit  Ltd   Ctrl  
  -------------------------------------------------------------------------------------
  WS02003066WSF200        1.00   0.01  0.07  0.00  0.00  0.93  0.00  0.00  0.53  0.00
  WS02006287WS02006284    1.00   0.04  0.01  0.00  0.51  0.44  0.00  0.00  0.61  0.00
  WS02006284WS02006280    1.00   0.05  0.00  0.00  0.00  0.00  0.00  0.95  0.00  0.00
  WS02006280WS02006229    1.00   0.05  0.00  0.00  0.06  0.08  0.00  0.81  0.02  0.00
  WS02006229WS02006228    1.00   0.00  0.00  0.00  1.00  0.00  0.00  0.00  0.00  0.00
  WS02006256WS02006235    1.00   0.01  0.00  0.00  0.98  0.00  0.00  0.00  0.00  0.00
  WS02006253WS02006251    1.00   0.02  0.02  0.00  0.95  0.00  0.01  0.00  0.00  0.00
  WS02006252WS02006251    1.00   0.09  0.00  0.00  0.15  0.00  0.75  0.00  0.00  0.00
  WS02006251WS02006249    1.00   0.00  0.00  0.00  1.00  0.00  0.00  0.00  0.36  0.00
  WS02006249WS02006248    1.00   0.00  0.01  0.00  0.87  0.00  0.12  0.00  0.00  0.00
  WS02006248WS02006247    1.00   0.01  0.00  0.00  0.98  0.00  0.00  0.01  0.16  0.00
  WS02006247WS02006245    1.00   0.01  0.00  0.00  0.98  0.00  0.00  0.02  0.00  0.00
  WS02006245WS02006243    1.00   0.01  0.00  0.00  0.95  0.00  0.00  0.04  0.00  0.00
  WS02006243WS02006242    1.00   0.01  0.00  0.00  0.98  0.00  0.00  0.01  0.21  0.00
  WS02006242WS02006240    1.00   0.02  0.00  0.00  0.98  0.00  0.01  0.00  0.00  0.00
  WS02006240WS02006239    1.00   0.01  0.00  0.00  0.93  0.00  0.00  0.06  0.01  0.00
  WS02006239WS02006238    1.00   0.01  0.00  0.00  0.99  0.00  0.00  0.00  0.11  0.00
  WS02006238WS02006235    1.00   0.01  0.00  0.00  0.99  0.00  0.00  0.00  0.00  0.00
  WS02006235WS02006234    1.00   0.01  0.00  0.00  0.96  0.00  0.02  0.00  0.00  0.00
  WS02006234WS02006232    1.00   0.01  0.00  0.00  0.99  0.00  0.00  0.00  0.00  0.00
  WS02006232WS02006231    1.00   0.01  0.00  0.00  0.98  0.00  0.00  0.00  0.00  0.00
  WS02006231WS02006230    1.00   0.01  0.00  0.00  0.57  0.00  0.42  0.00  0.00  0.00
  WS02006230WS02006229    1.00   0.00  0.00  0.00  0.99  0.00  0.00  0.01  0.00  0.00
  WS02006228WS02006109    1.00   0.00  0.00  0.00  1.00  0.00  0.00  0.00  0.00  0.00
  WS02006116WS02004401    1.00   0.02  0.00  0.00  0.98  0.00  0.00  0.00  0.00  0.00
  WS02006115WS02006116    1.00   0.02  0.00  0.00  0.97  0.00  0.00  0.00  0.00  0.00
  WS02006113WS02006111    1.00   0.02  0.00  0.00  0.18  0.80  0.00  0.00  0.15  0.00
  WS02006112WS02006115    1.00   0.02  0.00  0.00  0.98  0.00  0.00  0.00  0.00  0.00
  WS02006111WS02006112    1.00   0.02  0.00  0.00  0.98  0.00  0.00  0.00  0.70  0.00
  WS02006110WS02006113    1.00   0.00  0.02  0.00  0.98  0.00  0.00  0.00  0.00  0.00
  WS02006109WS02006110    1.00   0.00  0.00  0.00  0.99  0.00  0.00  0.00  0.00  0.00
  WS02004411WS02004412    1.00   0.04  0.00  0.00  0.96  0.00  0.00  0.00  0.00  0.00
  WS02004401WS02004402    1.00   0.02  0.00  0.00  0.98  0.00  0.00  0.00  0.00  0.00
  WS02004413WS02003067    1.00   0.04  0.02  0.00  0.00  0.00  0.94  0.00  0.00  0.00
  WS02004412WS02004413    1.00   0.04  0.00  0.00  0.96  0.00  0.00  0.00  0.01  0.00
  WS02004410WS02004411    1.00   0.03  0.00  0.00  0.97  0.00  0.00  0.00  0.01  0.00
  WS02004409WS02004410    1.00   0.03  0.00  0.00  0.97  0.00  0.00  0.00  0.02  0.00
  WS02004407WS02004409    1.00   0.03  0.00  0.00  0.96  0.01  0.00  0.00  0.89  0.00
  WS02004406WS02004407    1.00   0.00  0.03  0.00  0.97  0.00  0.00  0.00  0.00  0.00
  WS02004405WS02004406    1.00   0.00  0.00  0.00  1.00  0.00  0.00  0.00  0.04  0.00
  WS02004404WS02004405    1.00   0.00  0.00  0.00  1.00  0.00  0.00  0.00  0.00  0.00
  WS02004403WS02004404    1.00   0.00  0.02  0.00  0.98  0.00  0.00  0.00  0.00  0.00
  WS02004402WS02004403    1.00   0.02  0.00  0.00  0.98  0.00  0.00  0.00  0.00  0.00
  WS02004139WS02001211    1.00   0.00  0.00  0.00  1.00  0.00  0.00  0.00  0.00  0.00
  WS02004138WS02004139    1.00   0.00  0.00  0.00  1.00  0.00  0.00  0.00  1.00  0.00
  WS02003067WS02003066    1.00   0.06  0.01  0.00  0.93  0.00  0.00  0.00  0.00  0.00
  WS02001213WS02003059    1.00   0.00  0.00  0.00  1.00  0.00  0.00  0.00  0.00  0.00
  WS02001212WS02001213    1.00   0.00  0.00  0.00  0.92  0.00  0.08  0.00  0.00  0.00
  WS02001211WS02001212    1.00   0.00  0.00  0.00  1.00  0.00  0.00  0.00  0.00  0.00
  WS02003072WS02003073    1.00   0.00  0.00  0.00  0.00  0.00  0.00  1.00  0.00  0.00
  WS02003069WS02003072    1.00   0.00  0.00  0.00  1.00  0.00  0.00  0.00  0.07  0.00
  WS02003060WS02003069    1.00   0.00  0.00  0.00  0.99  0.01  0.00  0.00  0.05  0.00
  WS02003059WS02003060    1.00   0.00  0.00  0.00  1.00  0.00  0.00  0.00  0.00  0.00
  HS02004901HS02004770    1.00   0.04  0.00  0.00  0.96  0.00  0.00  0.00  0.00  0.00
  HS02004876HS02004881    1.00   0.01  0.00  0.00  0.76  0.24  0.00  0.00  0.00  0.00
  HS02004870HS02004876    1.00   0.00  0.00  0.00  1.00  0.00  0.00  0.00  0.95  0.00
  HS02004842HS02004848    1.00   0.00  0.04  0.00  0.96  0.00  0.00  0.00  0.53  0.00
  HS02004837HS02004842    1.00   0.00  0.00  0.00  1.00  0.00  0.00  0.00  0.11  0.00
  HS02004830HS02004837    1.00   0.00  0.00  0.00  1.00  0.00  0.00  0.00  0.99  0.00
  HS02004824HS02004830    1.00   0.00  0.00  0.00  1.00  0.00  0.00  0.00  0.03  0.00
  HS02004817HS02004824    1.00   0.00  0.00  0.00  1.00  0.00  0.00  0.00  0.86  0.00
  HS02004770HS02004777    1.00   0.00  0.04  0.00  0.96  0.00  0.00  0.00  0.01  0.00
  HS02004799HS02004480    1.00   0.00  0.01  0.00  0.95  0.00  0.04  0.00  0.00  0.00
  HS02004792HS02004799    1.00   0.00  0.00  0.00  1.00  0.00  0.00  0.00  0.98  0.00
  HS02004788HS02004792    1.00   0.00  0.00  0.00  1.00  0.00  0.00  0.00  0.98  0.00
  HS02004785HS02004788    1.00   0.00  0.00  0.00  1.00  0.00  0.00  0.00  0.00  0.00
  HS02004777HS02004785    1.00   0.00  0.00  0.00  1.00  0.00  0.00  0.00  0.10  0.00
  HS02004480HS02004478    1.00   0.05  0.00  0.00  0.60  0.00  0.00  0.35  0.00  0.00
  HS02004479HS02004480    1.00   0.01  0.00  0.00  0.99  0.00  0.00  0.00  0.10  0.00
  HS02004862HS02004870    1.00   0.00  0.00  0.00  1.00  0.00  0.00  0.00  0.02  0.00
  HS02004848HS02004852    1.00   0.04  0.00  0.00  0.96  0.00  0.00  0.00  0.83  0.00
  HS02004856HS02004862    1.00   0.00  0.05  0.00  0.95  0.00  0.00  0.00  0.85  0.00
  HS02004852HS02004856    1.00   0.04  0.00  0.00  0.95  0.00  0.00  0.00  0.69  0.00
  HS02004802HS02004478    1.00   0.05  0.00  0.00  0.95  0.00  0.00  0.00  0.01  0.00
  HS02004478WS02006287    1.00   0.05  0.00  0.00  0.67  0.29  0.00  0.00  0.58  0.00
  HS02004817HS02004807    1.00   0.00  0.04  0.00  0.96  0.00  0.00  0.00  0.01  0.00
  HS02004807HS02004802    1.00   0.04  0.00  0.00  0.95  0.00  0.00  0.00  0.00  0.00
  YS02001759YS02001757    1.00   0.00  0.00  0.00  1.00  0.00  0.00  0.00  0.15  0.00
  YS02001762YS02001759    1.00   0.00  0.00  0.00  1.00  0.00  0.00  0.00  0.01  0.00
  YS02001765YS02001762    1.00   0.00  0.00  0.00  1.00  0.00  0.00  0.00  0.13  0.00
  YS02001770YS02001767    1.00   0.00  0.00  0.00  1.00  0.00  0.00  0.00  0.00  0.00
  YS02001774YS02001770    1.00   0.00  0.04  0.00  0.95  0.00  0.00  0.00  0.01  0.00
  YS02001779YS02001774    1.00   0.00  0.00  0.00  1.00  0.00  0.00  0.00  0.15  0.00
  YS02001649YS02001757    1.00   0.00  0.00  0.00  1.00  0.00  0.00  0.00  0.15  0.00
  YS02001767YS02001765    1.00   0.00  0.00  0.00  1.00  0.00  0.00  0.00  0.00  0.00
  YS02006561YS02001783    1.00   0.05  0.00  0.00  0.56  0.39  0.00  0.00  0.37  0.00
  YS02001783YS02001784    1.00   0.00  0.05  0.00  0.95  0.00  0.00  0.00  0.00  0.00
  YS02001784YS02001785    1.00   0.00  0.00  0.00  1.00  0.00  0.00  0.00  0.15  0.00
  YS02001788YS02001790    1.00   0.00  0.00  0.00  0.60  0.40  0.00  0.00  0.26  0.00
  YS02001790YS02001791    1.00   0.00  0.00  0.00  0.56  0.44  0.00  0.00  0.33  0.00
  YS02001791YS02001793    1.00   0.00  0.00  0.00  0.58  0.42  0.00  0.00  0.02  0.00
  YS02001910YS02001907    1.00   0.00  0.00  0.00  0.99  0.00  0.00  0.01  0.11  0.00
  YS02001786YS02001788    1.00   0.00  0.00  0.00  0.59  0.41  0.00  0.00  0.00  0.00
  YS02001915YS02001910    1.00   0.00  0.00  0.00  0.99  0.01  0.00  0.00  0.12  0.00
  YS02001918YS02001915    1.00   0.00  0.00  0.00  0.99  0.00  0.00  0.00  0.43  0.00
  YS02001923YS02001920    1.00   0.00  0.00  0.00  1.00  0.00  0.00  0.00  0.65  0.00
  YS02001926YS02001923    1.00   0.00  0.03  0.00  0.38  0.00  0.59  0.00  0.00  0.00
  YS02001929YS02001926    1.00   0.00  0.04  0.00  0.96  0.00  0.00  0.00  0.56  0.00
  YS02001920YS02001918    1.00   0.00  0.00  0.00  1.00  0.00  0.00  0.00  0.00  0.00
  YS02001629YS02163301    1.00   0.05  0.00  0.00  0.95  0.00  0.00  0.00  0.00  0.00
  YS02001619YS02001622    1.00   0.04  0.00  0.00  0.96  0.00  0.00  0.00  0.00  0.00
  YS02001622YS02001625    1.00   0.04  0.00  0.00  0.95  0.00  0.00  0.00  0.02  0.00
  YS02001625YS02001629    1.00   0.04  0.01  0.00  0.93  0.00  0.01  0.00  0.00  0.00
  YS02163301YS02001633    1.00   0.00  0.05  0.00  0.95  0.00  0.00  0.00  0.00  0.00
  YS02163601YS02164001    1.00   0.00  0.03  0.00  0.97  0.00  0.00  0.00  0.00  0.00
  YS02164001YS02001641    1.00   0.00  0.03  0.00  0.97  0.00  0.00  0.00  0.05  0.00
  YS02001641YS02001644    1.00   0.00  0.00  0.00  1.00  0.00  0.00  0.00  0.00  0.00
  YS02001647YS02001649    1.00   0.00  0.05  0.00  0.95  0.00  0.00  0.00  0.01  0.00
  YS02006553YS02006556    1.00   0.00  0.00  0.00  1.00  0.00  0.00  0.00  0.03  0.00
  YS02006556YS02006558    1.00   0.00  0.00  0.00  1.00  0.00  0.00  0.00  0.00  0.00
  YSB6556YSB1171          1.00   0.01  0.03  0.00  0.96  0.00  0.00  0.00  0.00  0.00
  YS02001907YS02006553    1.00   0.00  0.01  0.00  0.99  0.00  0.00  0.00  0.00  0.00
  YS02006558YS02006561    1.00   0.05  0.00  0.00  0.38  0.57  0.00  0.00  0.35  0.00
  YS02001633YS02163601    1.00   0.00  0.00  0.00  1.00  0.00  0.00  0.00  0.14  0.00
  YS02001644YS02001647    1.00   0.00  0.05  0.00  0.95  0.00  0.00  0.00  0.00  0.00
  YS02001745YS02001748    1.00   0.00  0.00  0.00  0.92  0.00  0.00  0.07  0.00  0.00
  YS02001748YS02001751    1.00   0.00  0.00  0.00  0.98  0.02  0.00  0.00  0.13  0.00
  YS02001751YS02001754    1.00   0.00  0.00  0.00  0.94  0.00  0.00  0.06  0.01  0.00
  YS02001754YS02001757    1.00   0.00  0.00  0.00  1.00  0.00  0.00  0.00  0.15  0.00
  YS02001882YS02001884    1.00   0.05  0.00  0.00  0.95  0.00  0.00  0.00  0.00  0.00
  YS02001884YS02001887    1.00   0.02  0.02  0.00  0.96  0.00  0.00  0.00  0.00  0.00
  YS02001890YS02001895    1.00   0.00  0.05  0.00  0.95  0.00  0.00  0.00  0.00  0.00
  YS02001895YS02001898    1.00   0.05  0.00  0.00  0.94  0.00  0.01  0.00  0.00  0.00
  YS02001898YS02001901    1.00   0.05  0.00  0.00  0.95  0.00  0.00  0.00  0.00  0.00
  YS02001901YS02001904    1.00   0.05  0.00  0.00  0.95  0.00  0.00  0.00  0.00  0.00
  YS02001904YS02001907    1.00   0.00  0.05  0.00  0.95  0.00  0.00  0.00  0.00  0.00
  YS02001887YS02001890    1.00   0.00  0.00  0.00  0.99  0.00  0.01  0.00  0.00  0.00
  YS02001652YS02001649    1.00   0.00  0.00  0.00  1.00  0.00  0.00  0.00  0.14  0.00
  YS02001655YS02001652    1.00   0.00  0.00  0.00  0.94  0.00  0.00  0.06  0.01  0.00
  YS02001658YS02001655    1.00   0.00  0.05  0.00  0.93  0.02  0.00  0.00  0.01  0.00
  YS02001661YS02001658    1.00   0.05  0.00  0.00  0.92  0.03  0.00  0.00  0.00  0.00
  YS02001664YS02001661    1.00   0.04  0.00  0.00  0.93  0.03  0.00  0.00  0.06  0.00
  YSB1154YSB6556          1.00   0.04  0.00  0.00  0.96  0.00  0.00  0.00  0.01  0.00
  YSB1174YSB1171          1.00   0.02  0.02  0.00  0.97  0.00  0.00  0.00  0.00  0.00
  YSB1171HS02004479       1.00   0.01  0.00  0.00  0.98  0.00  0.00  0.01  0.09  0.00
  HS02004881HS02006253    1.00   0.02  0.00  0.00  0.49  0.04  0.00  0.45  0.40  0.00
  YS02001793JiankangQianchi    1.00   0.00  0.00  0.00  0.74  0.26  0.00  0.00  0.27  0.00
  YS02001757CaochengTiaoxuchi    1.00   0.00  0.06  0.00  0.90  0.03  0.00  0.00  0.00  0.00
  WSF200WS02003060        1.00   0.00  0.01  0.00  0.99  0.00  0.00  0.00  0.51  0.00
  1                       1.00   0.00  0.00  0.00  0.00  1.00  0.00  0.00  0.50  0.00
  
  
  *************************
  Conduit Surcharge Summary
  *************************
  
  ----------------------------------------------------------------------------
                                                           Hours        Hours 
                         --------- Hours Full --------   Above Full   Capacity
  Conduit                Both Ends  Upstream  Dnstream   Normal Flow   Limited
  ----------------------------------------------------------------------------
  WS02006280WS02006229        0.01      0.01      0.01      0.01         0.01
  WS02006229WS02006228        3.02      3.14      3.02      3.91         3.02
  WS02006256WS02006235        5.69      5.69      6.65      5.04         0.01
  WS02006253WS02006251        1.38      1.38      1.41      0.01         0.01
  WS02006252WS02006251        1.13      1.13      1.43      0.48         0.01
[...]
  YS02001649YS02001757        6.40      6.40      6.42      0.01         0.01
  YS02001767YS02001765        6.39      6.39      6.40      0.01         0.01
  YS02006561YS02001783        2.43      2.43      2.64      0.01         0.01
  YS02001783YS02001784        2.60      2.64      2.60      2.88         2.60
  YS02001784YS02001785        2.52      2.60      2.52      3.62         2.52
  YS02001788YS02001790        2.47      2.47      3.43      0.01         0.01
  YS02001790YS02001791        3.43      3.43      3.51      2.57         2.55
  YS02001791YS02001793        3.51      3.51      3.83      0.01         0.01
  YS02001910YS02001907        2.68      2.68      3.13      0.01         0.01
  YS02001786YS02001788        2.47      2.52      2.47      3.26         2.47
  YS02001915YS02001910        2.54      2.54      2.68      0.01         0.01
  YS02001918YS02001915        2.40      2.40      2.54      0.01         0.01
  YS02001923YS02001920        2.24      2.24      2.42      0.01         0.01
  YS02001926YS02001923        0.01      0.01      0.01      0.01         0.01
  YS02001929YS02001926        0.01      0.01      0.01      0.01         0.01
  YS02001920YS02001918        2.40      2.40      2.42      0.01         0.01
  YS02001629YS02163301        6.38      6.38      6.39      0.01         0.01
  YS02001619YS02001622        6.37      6.37      6.37      0.01         0.05
  YS02001622YS02001625        6.37      6.37      6.38      0.01         0.01
  YS02001625YS02001629        6.37      6.37      6.38      0.01         0.01
  YS02163301YS02001633        6.39      6.39      6.40      0.01         0.01
  YS02163601YS02164001        6.40      6.40      6.40      0.01         0.01
  YS02164001YS02001641        6.40      6.40      6.40      0.01         0.02
  YS02001641YS02001644        6.40      6.40      6.40      3.18         3.24
  YS02001647YS02001649        6.38      6.38      6.40      0.01         0.01
  YS02006553YS02006556        2.84      2.84      3.22      0.01         0.01
  YS02006556YS02006558        2.94      2.94      3.27      0.01         0.01
  YSB6556YSB1171              0.01      0.01      0.58      0.01         0.01
  YS02001907YS02006553        3.63      3.63      3.82      0.01         0.01
  YS02006558YS02006561        2.49      2.82      2.49      3.49         2.49
  YS02001633YS02163601        6.40      6.40      6.40      0.01         0.01
  YS02001644YS02001647        6.38      6.38      6.40      0.01         0.01
  YS02001745YS02001748        0.96      0.96      6.35      0.01         0.01
  YS02001748YS02001751        6.35      6.35      6.36      0.01         0.01
  YS02001751YS02001754        6.36      6.36      6.38      0.01         0.01
  YS02001754YS02001757        6.38      6.38      6.42      0.01         0.01
  YS02001882YS02001884        2.55      2.55      2.56      0.01         0.01
  YS02001884YS02001887        2.60      2.60      2.62      0.01         0.01
  YS02001890YS02001895        2.53      2.53      2.69      0.01         0.01
  YS02001895YS02001898        2.52      2.52      2.53      0.01         0.01
  YS02001898YS02001901        2.53      2.53      2.59      0.01         0.01
  YS02001901YS02001904        2.58      2.58      2.59      0.01         0.01
  YS02001904YS02001907        2.58      2.58      3.24      0.01         0.01
  YS02001887YS02001890        2.64      2.64      2.66      1.66         0.01
  YS02001652YS02001649        6.38      6.38      6.40      0.01         0.01
  YS02001655YS02001652        6.37      6.37      6.38      0.01         0.01
  YS02001658YS02001655        6.35      6.35      6.37      0.01         0.01
  YS02001661YS02001658        1.45      1.45      6.35      0.01         0.01
  YS02001664YS02001661        0.01      0.01      2.67      0.01         0.01
  YSB1174YSB1171              0.01      0.01      0.32      0.01         0.01
  HS02004881HS02006253        0.01      0.01      1.15      0.01         0.01
  YS02001793JiankangQianchi        3.74      3.74      5.24      0.01         0.01
  YS02001757CaochengTiaoxuchi        5.98      5.98      6.42      0.01         0.01
  
  
  ***************
  Pumping Summary
  ***************
  
  ---------------------------------------------------------------------------------------------------------
                                                  Min       Avg       Max     Total     Power    % Time Off
                        Percent   Number of      Flow      Flow      Flow    Volume     Usage    Pump Curve
  Pump                 Utilized   Start-Ups       LPS       LPS       LPS  10^6 ltr     Kw-hr    Low   High
  ---------------------------------------------------------------------------------------------------------
  CC-Pump-1               38.27           7      0.00    120.70    200.00     1.260      0.97    0.0    0.0
  CC-Pump-2               12.75           3      0.00    112.28    200.00     0.420      0.49    0.0    0.0
  JK-Pump-1               68.07           4      0.00    253.59    300.00     4.638     56.74    0.0    0.0
  JK-Pump-2               68.07           4      0.00    519.02    683.00     9.510    104.93    0.0   97.5
  XR-Pump-1              100.00           1      0.00     94.18     95.00     2.622     19.86    0.0    0.0
  XR-Pump-2              100.00           1      0.00     93.58     95.00     2.565     18.59    0.0    0.0
  XR-Pump-3              100.00           1      0.00     93.58     95.00     2.565     18.59    0.0    0.0
  XR-Pump-4              100.00           1      0.00     93.58     95.00     2.565     18.59    0.0    0.0
  
  
  ***************************
  Link Pollutant Load Summary
  ***************************
  
  ------------------------------------------------------------------------------------------
                                 COD            SS            TN            TP         NH4-N
  Link                            kg            kg            kg            kg            kg
  ------------------------------------------------------------------------------------------
  WS02003066WSF200          1197.024      2343.037        28.631         2.392        14.679
  WS02006287WS02006284       662.629      1308.451        17.241         1.527         9.011
  WS02006284WS02006280       663.074      1309.141        17.288         1.533         9.040
  WS02006280WS02006229       663.155      1309.404        17.287         1.533         9.039
  WS02006229WS02006228      1175.626      2302.095        27.762         2.293        14.180
  WS02006256WS02006235       310.211       594.106         6.519         0.483         3.230
  WS02006253WS02006251       125.407       254.788         2.613         0.187         1.269
  WS02006252WS02006251       209.219       414.075         3.904         0.271         1.878
  WS02006251WS02006249       326.782       653.710         6.377         0.450         3.082
  WS02006249WS02006248       246.893       490.053         4.833         0.341         2.339
  WS02006248WS02006247       251.416       498.581         4.953         0.352         2.404
  WS02006247WS02006245       249.540       494.055         4.933         0.352         2.397
  WS02006245WS02006243       247.821       489.824         4.922         0.352         2.394
  WS02006243WS02006242       246.165       485.339         4.916         0.354         2.396
  WS02006242WS02006240       244.818       481.405         4.902         0.353         2.391
  WS02006240WS02006239       244.757       480.324         4.916         0.355         2.400
  WS02006239WS02006238       245.490       481.005         4.942         0.357         2.415
  WS02006238WS02006235       246.025       481.754         4.949         0.358         2.417
  WS02006235WS02006234       522.211      1012.068        10.698         0.779         5.254
  WS02006234WS02006232       524.425      1016.402        10.765         0.786         5.291
  WS02006232WS02006231       526.947      1021.539        10.832         0.792         5.327
  WS02006231WS02006230       530.140      1028.132        10.911         0.800         5.368
  WS02006230WS02006229       533.999      1036.139        11.001         0.808         5.415
  WS02006228WS02006109      1174.333      2299.569        27.733         2.291        14.165
  WS02006116WS02004401      1202.274      2352.206        28.840         2.413        14.798
  WS02006115WS02006116      1203.729      2354.955        28.879         2.417        14.819
  WS02006113WS02006111      1179.565      2307.250        28.445         2.383        14.618
  WS02006112WS02006115      1205.461      2358.221        28.934         2.422        14.849
  WS02006111WS02006112      1178.513      2305.032        28.422         2.381        14.605
  WS02006110WS02006113      1180.306      2308.505        28.472         2.386        14.632
  WS02006109WS02006110      1181.758      2311.035        28.533         2.392        14.668
  WS02004411WS02004412      1198.409      2345.402        28.726         2.403        14.737
  WS02004401WS02004402      1200.981      2349.830        28.796         2.409        14.773
  WS02004413WS02003067      1197.251      2343.412        28.645         2.394        14.687
  WS02004412WS02004413      1198.073      2344.865        28.698         2.400        14.720
  WS02004410WS02004411      1198.652      2345.776        28.747         2.406        14.750
  WS02004409WS02004410      1199.013      2346.368        28.772         2.409        14.765
  WS02004407WS02004409      1199.153      2346.540        28.786         2.410        14.774
  WS02004406WS02004407      1198.942      2346.063        28.780         2.410        14.770
  WS02004405WS02004406      1199.843      2347.566        28.839         2.417        14.806
  WS02004404WS02004405      1199.890      2347.654        28.820         2.414        14.793
  WS02004403WS02004404      1199.228      2346.672        28.731         2.402        14.737
  WS02004402WS02004403      1200.045      2348.137        28.764         2.406        14.756
  WS02004139WS02001211      1294.891      2246.548        87.396        10.339        52.936
  WS02004138WS02004139      1300.355      2255.962        87.756        10.381        53.154
  WS02003067WS02003066      1197.134      2343.226        28.638         2.393        14.683
  WS02001213WS02003059      1329.582      2300.590        91.084        10.806        55.258
  WS02001212WS02001213      1337.816      2314.589        91.677        10.877        55.620
  WS02001211WS02001212      1339.879      2317.973        91.851        10.898        55.727
  WS02003072WS02003073      2629.347      4807.105       129.839        14.468        76.277
  WS02003069WS02003072      2634.132      4814.832       130.273        14.522        76.547
  WS02003060WS02003069      2635.844      4817.800       130.370        14.533        76.605
  WS02003059WS02003060      1326.798      2295.688        90.927        10.788        55.165
  HS02004901HS02004770        31.237        62.178         0.612         0.047         0.291
  HS02004876HS02004881       101.414       206.328         2.154         0.154         1.046
  HS02004870HS02004876        77.888       158.594         1.700         0.122         0.826
  HS02004842HS02004848        14.996        29.643         0.314         0.022         0.147
  HS02004837HS02004842        19.708        37.151         0.788         0.082         0.444
  HS02004830HS02004837       101.807       187.057         5.289         0.600         3.141
  HS02004824HS02004830       102.662       188.506         5.364         0.610         3.188
  HS02004817HS02004824       158.469       303.820         6.498         0.682         3.738
  HS02004770HS02004777       119.646       241.814         2.495         0.175         1.169
  HS02004799HS02004480       374.823       742.446         8.578         0.702         4.270
  HS02004792HS02004799       343.085       676.944         8.002         0.666         3.998
  HS02004788HS02004792       180.013       356.936         4.687         0.402         2.399
  HS02004785HS02004788       121.025       244.016         2.637         0.193         1.258
  HS02004777HS02004785       120.344       242.936         2.574         0.185         1.219
  HS02004480HS02004478       464.812       922.677        10.233         0.827         5.069
  HS02004479HS02004480        93.772       186.477         1.955         0.161         0.984
  HS02004862HS02004870        60.204       121.271         1.340         0.100         0.653
  HS02004848HS02004852        26.761        53.672         0.548         0.038         0.256
  HS02004856HS02004862        41.869        85.060         0.850         0.058         0.403
  HS02004852HS02004856        26.785        53.715         0.548         0.038         0.257
  HS02004802HS02004478       198.957       387.625         7.078         0.708         3.984
  HS02004478WS02006287       662.712      1308.495        17.258         1.529         9.021
  HS02004817HS02004807       157.282       302.054         6.357         0.664         3.649
  HS02004807HS02004802       198.924       387.529         7.102         0.712         4.000
  YS02001759YS02001757       545.718      1061.367        10.544         0.749         5.138
  YS02001762YS02001759       372.023       714.723         7.459         0.532         3.654
  YS02001765YS02001762       373.641       719.328         7.500         0.535         3.676
  YS02001770YS02001767       382.913       741.255         7.601         0.537         3.714
  YS02001774YS02001770       864.586      1710.421        17.031         1.164         8.278
  YS02001779YS02001774       864.290      1709.995        17.097         1.174         8.324
  YS02001649YS02001757       785.610      1521.466        15.716         1.075         7.616
  YS02001767YS02001765       376.884       727.221         7.564         0.540         3.709
  YS02006561YS02001783      1600.629      3069.708        33.132         2.427        16.340
  YS02001783YS02001784      1600.512      3069.529        33.127         2.426        16.338
  YS02001784YS02001785      1607.910      3081.430        33.840         2.516        16.784
  YS02001788YS02001790      1608.522      3082.446        33.911         2.525        16.829
  YS02001790YS02001791      1609.599      3084.234        34.011         2.537        16.891
  YS02001791YS02001793      1609.400      3083.859        34.005         2.537        16.888
  YS02001910YS02001907       952.198      1849.981        20.367         1.455        10.131
  YS02001786YS02001788      1608.117      3081.791        33.868         2.519        16.801
  YS02001915YS02001910       951.655      1848.892        20.318         1.448        10.100
  YS02001918YS02001915       473.439       888.547        10.566         0.859         5.406
  YS02001923YS02001920       447.782       844.411         8.531         0.612         4.150
  YS02001926YS02001923       444.687       838.766         8.413         0.600         4.083
  YS02001929YS02001926       441.924       833.848         8.309         0.590         4.024
  YS02001920YS02001918       468.899       878.964        10.468         0.852         5.357
  YS02001629YS02163301       210.553       398.264         4.144         0.295         1.982
  YS02001619YS02001622       451.027       868.454         9.084         0.615         4.291
  YS02001622YS02001625       450.715       868.047         9.072         0.614         4.286
  YS02001625YS02001629       204.918       387.250         4.043         0.287         1.932
  YS02163301YS02001633       216.285       409.499         4.243         0.303         2.032
  YS02163601YS02164001       716.095      1349.823        13.903         1.022         6.718
  YS02164001YS02001641       716.800      1351.096        13.903         1.021         6.717
  YS02001641YS02001644       719.181      1355.400        13.938         1.024         6.732
  YS02001647YS02001649       923.586      1773.786        18.702         1.306         8.997
  YS02006553YS02006556       810.074      1516.145        17.532         1.317         8.772
  YS02006556YS02006558       810.556      1517.067        17.499         1.312         8.748
  YSB6556YSB1171              54.545       108.518         1.086         0.087         0.541
  YS02001907YS02006553       809.884      1515.754        17.577         1.324         8.803
  YS02006558YS02006561      1600.541      3069.511        33.131         2.427        16.340
  YS02001633YS02163601       716.655      1350.745        13.879         1.017         6.700
  YS02001644YS02001647       930.425      1787.608        18.803         1.314         9.045
  YS02001745YS02001748       597.860      1178.506        11.860         0.761         5.723
  YS02001748YS02001751       597.369      1177.696        11.870         0.763         5.732
  YS02001751YS02001754       596.708      1176.633        11.859         0.763         5.728
  YS02001754YS02001757       597.881      1178.503        12.028         0.786         5.836
  YS02001882YS02001884         3.625         6.536         0.067         0.005         0.033
  YS02001884YS02001887         8.138        14.972         0.150         0.011         0.073
  YS02001890YS02001895       827.119      1598.232        15.723         1.198         7.699
  YS02001895YS02001898       826.971      1598.079        15.716         1.197         7.695
  YS02001898YS02001901       826.755      1597.654        15.711         1.197         7.693
  YS02001901YS02001904       826.717      1597.620        15.728         1.199         7.704
  YS02001904YS02001907       827.009      1598.019        15.786         1.207         7.741
  YS02001887YS02001890      1075.815      2094.714        20.307         1.549         9.939
  YS02001652YS02001649       546.633      1058.150        10.901         0.796         5.148
  YS02001655YS02001652       547.277      1059.195        10.920         0.797         5.157
  YS02001658YS02001655       547.055      1058.853        10.841         0.786         5.104
  YS02001661YS02001658       547.708      1059.878        10.858         0.787         5.112
  YS02001664YS02001661       556.674      1073.779        11.086         0.803         5.217
  YSB1154YSB6556              54.071       107.778         1.038         0.081         0.511
  YSB1174YSB1171              37.704        75.535         0.747         0.059         0.369
  YSB1171HS02004479           93.614       186.168         1.960         0.162         0.989
  HS02004881HS02006253       113.935       232.359         2.395         0.170         1.163
  YS02001793JiankangQianchi      1609.399      3083.884        33.981         2.533        16.872
  YS02001757CaochengTiaoxuchi       690.943      1359.127        13.014         0.898         6.263
  WSF200WS02003060          1197.094      2343.185        28.637         2.393        14.683
  1                         2637.299      4818.964       130.856        14.600        76.925
  CC-Pump-1                  157.434       311.857         2.918         0.202         1.401
  CC-Pump-2                   51.237       101.207         0.955         0.066         0.459
  JK-Pump-1                  443.711       860.105         9.086         0.667         4.478
  JK-Pump-2                 1010.167      1958.148        20.686         1.519        10.195
  XR-Pump-1                  335.426       580.608        22.913         2.717        13.896
  XR-Pump-2                  322.779       560.373        21.699         2.565        13.137
  XR-Pump-3                  322.779       560.373        21.699         2.565        13.137
  XR-Pump-4                  322.779       560.373        21.699         2.565        13.137
  

  Analysis begun on:  Thu Jul 15 19:07:18 2021
  Analysis ended on:  Thu Jul 15 19:07:20 2021
  Total elapsed time: 00:00:02