
  EPA STORM WATER MANAGEMENT MODEL - VERSION 5.1 (Build 5.3.0.dev0)
  --------------------------------------------------------------

  WARNING 04: minimum elevation drop used for Conduit WS02004404WS02004405
  WARNING 03: negative offset ignored for Link YS02001904YS02001907
  
  *********************************************************
  NOTE: The summary statistics displayed in this report are
  based on results found at every computational time step,  
  not just on results from each reporting time step.
  *********************************************************
  
  ****************
  Analysis Options
  ****************
  Flow Units ............... LPS
  Process Models:
    Rainfall/Runoff ........ YES
    RDII ................... NO
    Snowmelt ............... NO
    Groundwater ............ NO
    Flow Routing ........... YES
    Ponding Allowed ........ NO
    Water Quality .......... YES
  Infiltration Method ...... HORTON
  Flow Routing Method ...... DYNWAVE
  Surcharge Method ......... EXTRAN
  Starting Date ............ 08/28/2015 08:00:00
  Ending Date .............. 08/28/2015 15:50:00
  Antecedent Dry Days ...... 8.0
  Report Time Step ......... 00:01:00
  Wet Time Step ............ 00:01:00
  Dry Time Step ............ 00:01:00
  Routing Time Step ........ 5.00 sec
  Variable Time Step ....... YES
  Maximum Trials ........... 8
  Number of Threads ........ 4
  Head Tolerance ........... 0.001500 m
  
  
  **************************        Volume         Depth
  Runoff Quantity Continuity     hectare-m            mm
  **************************     ---------       -------
  Total Precipitation ......         7.641        16.729
  Evaporation Loss .........         0.000         0.000
  Infiltration Loss ........         1.184         2.592
  Surface Runoff ...........         5.481        12.000
  Final Storage ............         0.977         2.139
  Continuity Error (%) .....        -0.016
  
  
  **************************           COD            SS            TN            TP         NH4-N
  Runoff Quality Continuity             kg            kg            kg            kg            kg
  **************************    ----------    ----------    ----------    ----------    ----------
  Initial Buildup ..........     41378.656     70582.865      1804.177       168.684      1032.807
  Surface Buildup ..........        30.344        63.217         2.449         0.220         1.402
  Wet Deposition ...........         0.000         0.000         0.000         0.000         0.000
  Sweeping Removal .........         0.000         0.000         0.000         0.000         0.000
  Infiltration Loss ........       127.934       247.015         2.452         0.174         1.174
  BMP Removal ..............         0.000         0.000         0.000         0.000         0.000
  Surface Runoff ...........      5553.100     10632.121       107.101         7.411        51.076
  Remaining Buildup ........     35725.917     59762.998      1697.031       161.316       981.940
  Continuity Error (%) .....         0.005         0.006         0.002         0.002         0.002
  
  
  **************************        Volume        Volume
  Flow Routing Continuity        hectare-m      10^6 ltr
  **************************     ---------     ---------
  Dry Weather Inflow .......         0.616         6.165
  Wet Weather Inflow .......         5.479        54.793
  Groundwater Inflow .......         0.000         0.000
  RDII Inflow ..............         0.000         0.000
  External Inflow ..........         0.102         1.024
  External Outflow .........         1.983        19.832
  Flooding Loss ............         3.751        37.510
  Evaporation Loss .........         0.000         0.000
  Exfiltration Loss ........         0.000         0.000
  Initial Stored Volume ....         0.076         0.761
  Final Stored Volume ......         0.652         6.517
  Continuity Error (%) .....        -1.781
  
  
  **************************           COD            SS            TN            TP         NH4-N
  Quality Routing Continuity            kg            kg            kg            kg            kg
  **************************    ----------    ----------    ----------    ----------    ----------
  Dry Weather Inflow .......      1541.201      2465.922       147.955        18.494        92.472
  Wet Weather Inflow .......      5552.177     10630.522       107.081         7.410        51.067
  Groundwater Inflow .......         0.000         0.000         0.000         0.000         0.000
  RDII Inflow ..............         0.000         0.000         0.000         0.000         0.000
  External Inflow ..........       183.418       293.469        17.608         2.201        11.005
  External Outflow .........      2446.777      4352.689       139.326        16.058        83.340
  Flooding Loss ............      4049.903      7643.898       103.450         8.997        54.264
  Exfiltration Loss ........         0.000         0.000         0.000         0.000         0.000
  Mass Reacted .............         0.000         0.000         0.000         0.000         0.000
  Initial Stored Mass ......         0.000         0.000         0.000         0.000         0.000
  Final Stored Mass ........       669.166      1208.898        26.350         2.733        15.040
  Continuity Error (%) .....         1.525         1.377         1.290         1.131         1.229
  
  
  *************************
  Highest Continuity Errors
  *************************
  Node HS02004842 (10.96%)
  Node JK-storage (-9.08%)
  Node YS02001884 (7.92%)
  Node HS02004817 (2.13%)
  Node YSB1171 (1.97%)
  
  
  ***************************
  Time-Step Critical Elements
  ***************************
  Link WS02006252WS02006251 (59.94%)
  Link WS02006280WS02006229 (13.56%)
  Link WS02006238WS02006235 (9.70%)
  Link YS02001793JiankangQianchi (4.07%)
  Link YS02006556YS02006558 (2.89%)
  
  
  ********************************
  Highest Flow Instability Indexes
  ********************************
  Link WS02006113WS02006111 (41)
  Link YS02001629YS02163301 (29)
  Link YS02001619YS02001622 (29)
  Link YS02163601YS02164001 (28)
  Link YS02163301YS02001633 (28)
  
  
  *************************
  Routing Time Step Summary
  *************************
  Minimum Time Step           :     0.50 sec
  Average Time Step           :     1.34 sec
  Maximum Time Step           :     5.00 sec
  Percent in Steady State     :    -0.00
  Average Iterations per Step :     3.79
  Percent Not Converging      :    14.77
  
  
  ***************************
  Subcatchment Runoff Summary
  ***************************
  
  ------------------------------------------------------------------------------------------------------------------------------
                            Total      Total      Total      Total     Imperv       Perv      Total       Total     Peak  Runoff
                           Precip      Runon       Evap      Infil     Runoff     Runoff     Runoff      Runoff   Runoff   Coeff
  Subcatchment                 mm         mm         mm         mm         mm         mm         mm    10^6 ltr      LPS
  ------------------------------------------------------------------------------------------------------------------------------
  sub0                      16.73       0.00       0.00       0.71      15.51       0.47      15.98        0.01     3.87   0.955
  sub1                      16.73       0.00       0.00       1.18      14.80       0.66      15.46        0.10    26.74   0.924
  sub2                      16.73       0.00       0.00       4.79      10.46       1.40      11.85        0.11    25.81   0.708
  sub3                      16.73       0.00       0.00       5.01      10.42       1.18      11.60        0.26    56.97   0.693
  sub4                      16.73       0.00       0.00       1.28      14.64       0.56      15.20        0.32    66.74   0.909
  sub5                      16.73       0.00       0.00       0.73      15.46       0.44      15.91        0.18    46.91   0.951
  sub7                      16.73       0.00       0.00       0.93      15.16       0.58      15.74        0.05    14.85   0.941
  sub8                      16.73       0.00       0.00       0.94      15.15       0.57      15.72        0.10    27.42   0.940
  sub9                      16.73       0.00       0.00       0.94      15.15       0.57      15.72        0.08    20.52   0.940
  sub10                     16.73       0.00       0.00       0.83      15.30       0.50      15.81        0.17    46.04   0.945
  sub11                     16.73       0.00       0.00       0.83      15.32       0.51      15.83        0.18    50.62   0.947
  sub12                     16.73       0.00       0.00       1.34      14.51       0.83      15.34        0.13    39.22   0.917
  sub14                     16.73       0.00       0.00       0.94      15.15       0.57      15.72        0.15    40.40   0.939
  sub15                     16.73       0.00       0.00       3.54      11.65       1.48      13.13        0.23    57.86   0.785
  sub16                     16.73       0.00       0.00       3.72      11.17       1.80      12.97        0.14    37.34   0.776
  sub17                     16.73       0.00       0.00       3.62      11.33       1.73      13.07        0.11    30.57   0.781
  sub22                     16.73       0.00       0.00       5.27       9.49       1.92      11.42        0.72   183.11   0.683
  sub23                     16.73       0.00       0.00       4.37      10.50       1.82      12.32        0.59   153.57   0.736
  sub60                     16.73       0.00       0.00       1.74      12.78       0.27      13.05        3.96   446.24   0.780
  sub61                     16.73       0.00       0.00       2.46      12.72       0.38      13.11        4.04   542.53   0.784
  sub62                     16.73       0.00       0.00       1.06      13.91       0.27      14.19        4.36   558.01   0.848
  sub63                     16.73       0.00       0.00       4.39      11.06       0.46      11.52        3.49   496.40   0.689
  sub64                     16.73       0.00       0.00       2.23      12.28       0.28      12.56        3.82   424.95   0.751
  sub65                     16.73       0.00       0.00       1.91      12.51       0.27      12.77        3.93   431.32   0.764
  sub66                     16.73       0.00       0.00       4.54      10.46       0.31      10.78        3.31   388.44   0.644
  sub67                     16.73       0.00       0.00       1.01      14.45       0.32      14.78        4.56   675.76   0.883
  sub68                     16.73       0.00       0.00       1.95      13.33       0.39      13.71        4.22   589.75   0.820
  sub69                     16.73       0.00       0.00       2.00      13.62       0.51      14.12        3.30   542.07   0.844
  sub70                     16.73      14.42       0.00       8.47      19.01       2.12      21.13        4.84   534.50   0.678
  sub71                     16.73       0.00       0.00       1.08      13.65       0.25      13.90        3.28   394.68   0.831
  sub72                     16.73       0.00       0.00       1.02      11.50       0.15      11.65        2.37   206.66   0.697
  1                         16.73      20.58       0.00       1.37      22.38       7.20      29.58        6.95   612.18   0.793
  2                         16.73       0.00       0.00       3.02       4.04       3.18       7.22        2.89   331.58   0.431
  
  
  ****************************
  Subcatchment Washoff Summary
  ****************************
  
  ------------------------------------------------------------------------------------------
                                 COD            SS            TN            TP         NH4-N
  Subcatchment                    kg            kg            kg            kg            kg
  ------------------------------------------------------------------------------------------
  sub0                         3.641         7.161         0.064         0.005         0.031
  sub1                        15.670        31.767         0.296         0.021         0.143
  sub2                        10.304        20.454         0.214         0.015         0.099
  sub3                        25.293        49.815         0.517         0.036         0.240
  sub4                        36.168        74.260         0.714         0.044         0.344
  sub5                        35.763        71.366         0.649         0.050         0.316
  sub7                         7.894        16.212         0.150         0.010         0.073
  sub8                        11.755        24.726         0.234         0.014         0.113
  sub9                        10.113        20.966         0.196         0.013         0.095
  sub10                       29.347        59.341         0.545         0.040         0.265
  sub11                       28.395        58.052         0.536         0.037         0.260
  sub12                       24.463        49.072         0.450         0.034         0.218
  sub14                       21.697        44.543         0.414         0.028         0.200
  sub15                       29.696        58.821         0.572         0.042         0.270
  sub16                       19.246        38.050         0.367         0.028         0.174
  sub17                       17.687        34.653         0.330         0.026         0.156
  sub22                       95.915       186.896         1.820         0.139         0.857
  sub23                       54.382       109.539         1.141         0.076         0.527
  sub60                      353.947       679.509         6.988         0.437         3.357
  sub61                      439.695       840.113         8.188         0.570         3.952
  sub62                      449.790       873.119         8.744         0.564         4.209
  sub63                      328.186       618.356         6.505         0.463         3.037
  sub64                      450.924       835.563         8.299         0.611         3.976
  sub65                      460.537       856.688         8.527         0.617         4.090
  sub66                      259.427       485.147         5.248         0.348         2.463
  sub67                      667.181      1281.068        12.075         0.900         5.853
  sub68                      479.473       924.467         9.153         0.628         4.389
  sub69                      429.286       835.450         8.068         0.576         3.873
  sub70                      758.301      1478.311        15.194         1.074         7.173
  sub71                      296.268       580.620         6.027         0.356         2.890
  sub72                      247.759       452.374         4.612         0.320         2.223
  1                          576.917      1130.968        11.723         0.829         5.484
  2                           65.566       118.435         1.802         0.109         0.773
  ------------------------------------------------------------------------------------------
  System                    6740.687     12945.882       130.363         9.060        62.122
  
  
  ******************
  Node Depth Summary
  ******************
  
  ---------------------------------------------------------------------------------
                                 Average  Maximum  Maximum  Time of Max    Reported
                                   Depth    Depth      HGL   Occurrence   Max Depth
  Node                 Type       Meters   Meters   Meters  days hr:min      Meters
  ---------------------------------------------------------------------------------
  WS02001211           JUNCTION     0.77     0.85     5.69     0  02:01        0.85
  WS02001212           JUNCTION     0.48     0.58     5.64     0  02:01        0.58
  WS02001213           JUNCTION     0.71     0.86     5.62     0  02:01        0.86
  WS02003069           JUNCTION     0.50     0.72     5.31     0  02:01        0.72
  WS02003072           JUNCTION     0.57     0.77     5.14     0  02:00        0.77
  WS02003073           JUNCTION     0.34     0.48     4.55     0  02:01        0.48
  WS02003060           JUNCTION     0.45     0.64     5.57     0  02:00        0.64
  WS02003066           JUNCTION     0.24     0.39     5.94     0  01:55        0.39
  WS02003059           JUNCTION     0.76     0.91     5.60     0  02:00        0.91
  WS02003067           JUNCTION     0.58     0.83     6.15     0  01:53        0.83
  WS02004401           JUNCTION     0.70     1.30     7.30     0  01:52        1.30
  WS02004402           JUNCTION     0.73     1.29     7.25     0  01:52        1.28
  WS02004403           JUNCTION     0.75     1.26     7.19     0  01:51        1.23
  WS02004404           JUNCTION     0.82     1.30     7.15     0  01:51        1.27
  WS02004406           JUNCTION     0.82     1.20     7.03     0  01:51        1.18
  WS02004409           JUNCTION     0.51     0.98     6.75     0  01:54        0.98
  WS02004410           JUNCTION     0.53     0.96     6.68     0  01:54        0.96
  WS02004411           JUNCTION     0.54     0.94     6.62     0  01:54        0.94
  WS02004412           JUNCTION     0.55     0.92     6.56     0  01:54        0.91
  WS02004413           JUNCTION     0.71     1.03     6.50     0  01:54        1.03
  WS02004405           JUNCTION     0.81     1.27     7.12     0  01:51        1.24
  WS02006109           JUNCTION     0.80     1.75     8.37     0  01:52        1.75
  WS02006110           JUNCTION     0.78     1.55     8.14     0  01:52        1.55
  WS02006111           JUNCTION     0.26     1.02     7.72     0  01:51        0.98
  WS02006112           JUNCTION     0.88     1.66     7.54     0  01:52        1.65
  WS02006113           JUNCTION     0.36     1.26     8.15     0  01:51        1.03
  WS02006115           JUNCTION     0.60     1.31     7.45     0  01:52        1.31
  WS02006116           JUNCTION     0.68     1.34     7.38     0  01:52        1.34
  WS02006230           JUNCTION     0.80     1.98     8.72     0  01:52        1.95
  WS02006231           JUNCTION     0.55     1.61     8.73     0  01:52        1.58
  WS02006232           JUNCTION     0.69     1.70     8.74     0  01:52        1.67
  WS02006234           JUNCTION     0.61     1.59     8.75     0  01:52        1.58
  WS02006235           JUNCTION     0.64     1.60     8.76     0  01:52        1.58
  WS02006238           JUNCTION     0.67     1.61     8.76     0  01:52        1.60
  WS02006240           JUNCTION     0.55     1.44     8.73     0  01:52        1.43
  WS02006242           JUNCTION     0.59     1.46     8.73     0  01:52        1.45
  WS02006243           JUNCTION     0.47     1.29     8.71     0  01:52        1.28
  WS02006245           JUNCTION     0.44     1.23     8.71     0  01:51        1.21
  WS02006247           JUNCTION     0.44     1.20     8.70     0  01:51        1.20
  WS02006248           JUNCTION     0.38     1.10     8.69     0  01:51        1.10
  WS02006249           JUNCTION     0.40     1.09     8.69     0  01:50        1.09
  WS02006239           JUNCTION     0.61     1.54     8.74     0  01:52        1.51
  WS02006251           JUNCTION     0.38     1.19     8.86     0  01:51        1.17
  WS02006252           JUNCTION     0.26     0.73     8.97     0  02:20        0.73
  WS02006253           JUNCTION     0.41     1.32     8.96     0  01:50        1.20
  WS02006256           JUNCTION     1.80     2.35     9.28     0  00:28        2.35
  WS02004138           JUNCTION     0.19     0.20     7.45     0  00:00        0.19
  WS02004139           JUNCTION     0.72     0.79     5.70     0  02:01        0.79
  WS02004407           JUNCTION     0.23     0.40     6.72     0  01:52        0.40
  WS02006228           JUNCTION     0.81     1.93     8.59     0  01:52        1.92
  WS02006229           JUNCTION     0.80     2.01     8.70     0  01:52        1.98
  WS02006280           JUNCTION     0.08     0.33     8.60     0  01:51        0.31
  WS02006284           JUNCTION     0.38     0.66     9.06     0  01:54        0.66
  WS02006287           JUNCTION     0.11     0.40     9.36     0  01:54        0.40
  WSF200               JUNCTION     0.22     0.44     5.68     0  01:54        0.44
  HS02004901           JUNCTION     0.14     0.38    10.21     0  01:53        0.38
  HS02004881           JUNCTION     0.01     0.05     9.08     0  01:54        0.05
  HS02004876           JUNCTION     0.05     0.17     9.20     0  01:54        0.17
  HS02004870           JUNCTION     0.02     0.10     9.38     0  01:54        0.10
  HS02004862           JUNCTION     0.02     0.11     9.50     0  01:55        0.11
  HS02004856           JUNCTION     0.08     0.15     9.58     0  01:54        0.15
  HS02004852           JUNCTION     0.01     0.08     9.59     0  01:55        0.08
  HS02004848           JUNCTION     0.01     0.07     9.67     0  01:54        0.07
  HS02004842           JUNCTION     0.34     0.40     9.67     0  01:54        0.40
  HS02004837           JUNCTION     0.03     0.09     9.67     0  01:54        0.09
  HS02004830           JUNCTION     0.04     0.11     9.58     0  01:55        0.11
  HS02004824           JUNCTION     0.03     0.15     9.55     0  01:54        0.15
  HS02004817           JUNCTION     0.45     0.71     9.56     0  01:54        0.71
  HS02004807           JUNCTION     0.14     0.38     9.55     0  01:55        0.38
  HS02004802           JUNCTION     0.17     0.41     9.54     0  01:55        0.41
  HS02004799           JUNCTION     0.14     0.48     9.69     0  01:53        0.48
  HS02004792           JUNCTION     0.04     0.22     9.75     0  01:53        0.22
  HS02004788           JUNCTION     0.03     0.16    10.06     0  01:53        0.16
  HS02004785           JUNCTION     0.06     0.25    10.15     0  01:53        0.25
  HS02004777           JUNCTION     0.16     0.40    10.20     0  01:53        0.40
  HS02004770           JUNCTION     0.13     0.37    10.21     0  01:53        0.37
  HS02004480           JUNCTION     0.10     0.39     9.64     0  01:53        0.39
  HS02004479           JUNCTION     0.13     0.43     9.64     0  01:53        0.43
  HS02004478           JUNCTION     0.07     0.29     9.52     0  01:54        0.29
  YS02001745           JUNCTION     0.78     0.95     8.46     0  02:41        0.95
  YS02001748           JUNCTION     1.18     1.51     8.58     0  01:47        1.38
  YS02001751           JUNCTION     1.36     1.58     8.46     0  03:06        1.57
  YS02001754           JUNCTION     1.61     1.84     8.45     0  03:04        1.84
  YS02001762           JUNCTION     1.81     2.04     8.44     0  03:05        2.03
  YS02001765           JUNCTION     1.76     1.99     8.44     0  03:06        1.98
  YS02001767           JUNCTION     1.73     1.94     8.43     0  03:06        1.94
  YS02001770           JUNCTION     1.72     1.92     8.42     0  03:06        1.92
  YS02001774           JUNCTION     1.79     1.98     8.41     0  03:05        1.98
  YS02001779           JUNCTION     1.53     1.68     8.37     0  01:42        1.68
  YS02001882           JUNCTION     0.66     1.64     8.36     0  01:52        1.63
  YS02001884           JUNCTION     0.76     1.74     8.35     0  02:05        1.73
  YS02001759           JUNCTION     1.84     2.08     8.45     0  03:05        2.08
  YS02001887           JUNCTION     0.84     1.81     8.35     0  02:10        1.81
  YS02001890           JUNCTION     0.87     1.81     8.32     0  01:52        1.81
  YS02001898           JUNCTION     0.63     1.57     8.30     0  01:52        1.56
  YS02001901           JUNCTION     0.75     1.68     8.29     0  01:52        1.67
  YS02001904           JUNCTION     0.73     1.64     8.27     0  02:00        1.63
  YS02001907           JUNCTION     1.06     1.96     8.25     0  01:52        1.96
  YS02001910           JUNCTION     0.85     1.81     8.32     0  01:53        1.80
  YS02001915           JUNCTION     0.65     1.65     8.37     0  01:53        1.63
  YS02001918           JUNCTION     0.40     1.39     8.46     0  01:53        1.35
  YS02001619           JUNCTION     1.32     1.60     8.53     0  01:45        1.48
  YS02001629           JUNCTION     1.67     1.85     8.40     0  01:47        1.84
  YS02001641           JUNCTION     1.76     1.93     8.37     0  02:23        1.93
  YS02001644           JUNCTION     1.77     1.92     8.35     0  01:48        1.92
  YS02001652           JUNCTION     1.62     2.02     8.61     0  04:08        1.88
  YS02001655           JUNCTION     1.39     1.92     8.77     0  04:08        1.67
  YS02001920           JUNCTION     0.50     1.50     8.51     0  01:53        1.44
  YS02001923           JUNCTION     0.32     1.28     8.54     0  01:53        1.22
  YS02001926           JUNCTION     0.36     1.12     8.57     0  01:53        1.06
  YS02001929           JUNCTION     0.22     0.91     8.60     0  01:53        0.85
  YS02001658           JUNCTION     1.12     1.75     8.89     0  04:08        1.41
  YS02001661           JUNCTION     0.88     1.84     9.24     0  04:08        1.21
  YS02001664           JUNCTION     0.40     0.57     8.49     0  04:13        0.55
  YS02001622           JUNCTION     1.34     1.59     8.49     0  01:45        1.50
  YS02001633           JUNCTION     1.76     1.95     8.41     0  01:47        1.94
  YS02001649           JUNCTION     1.82     2.05     8.44     0  01:59        2.04
  YS02001757           JUNCTION     1.94     2.18     8.44     0  03:04        2.18
  YS02001895           JUNCTION     0.63     1.57     8.31     0  01:54        1.56
  YS02001625           JUNCTION     1.62     1.78     8.38     0  01:45        1.78
  YS02163301           JUNCTION     1.70     1.89     8.41     0  01:47        1.88
  YS02163601           JUNCTION     1.81     1.99     8.39     0  02:03        1.98
  YS02164001           JUNCTION     1.75     1.92     8.37     0  02:12        1.91
  YS02001647           JUNCTION     1.60     1.80     8.41     0  01:59        1.79
  YSB1154              JUNCTION     0.27     0.58     9.64     0  01:53        0.58
  YSB6556              JUNCTION     0.16     0.47     9.64     0  01:53        0.47
  YSB1174              JUNCTION     0.22     0.53     9.64     0  01:53        0.53
  YSB1171              JUNCTION     0.42     0.74     9.64     0  01:53        0.74
  YS02006553           JUNCTION     1.06     1.97     8.26     0  02:09        1.97
  YS02006561           JUNCTION     0.39     1.08     7.74     0  02:12        1.07
  YS02006556           JUNCTION     1.02     1.94     8.25     0  02:12        1.93
  YS02006558           JUNCTION     1.06     1.98     8.24     0  02:12        1.97
  YS02001783           JUNCTION     0.62     1.47     7.61     0  02:13        1.46
  YS02001784           JUNCTION     0.63     1.41     7.48     0  02:12        1.39
  YS02001786           JUNCTION     0.55     1.25     7.28     0  02:12        1.24
  YS02001788           JUNCTION     0.47     1.11     7.08     0  02:14        1.10
  YS02001790           JUNCTION     0.59     1.34     6.98     0  04:30        1.25
  YS02001791           JUNCTION     0.54     1.52     6.99     0  06:06        1.23
  YS02001793           JUNCTION     0.76     1.91     6.74     0  06:02        1.79
  WSC                  OUTFALL      0.34     0.48     1.15     0  02:02        0.48
  JK-storage           STORAGE      3.01     5.80     6.60     0  04:31        5.80
  CC-storage           STORAGE      1.20     1.44     8.44     0  03:07        1.44
  XR-storage           STORAGE      7.03     7.72     5.72     0  02:06        7.72
  
  
  *******************
  Node Inflow Summary
  *******************
  
  -------------------------------------------------------------------------------------------------
                                  Maximum  Maximum                  Lateral       Total        Flow
                                  Lateral    Total  Time of Max      Inflow      Inflow     Balance
                                   Inflow   Inflow   Occurrence      Volume      Volume       Error
  Node                 Type           LPS      LPS  days hr:min    10^6 ltr    10^6 ltr     Percent
  -------------------------------------------------------------------------------------------------
  WS02001211           JUNCTION      7.35   389.39     0  03:09       0.207        10.3       0.393
  WS02001212           JUNCTION      0.00   391.28     0  03:10           0        10.2       0.235
  WS02001213           JUNCTION      0.00   392.97     0  04:30           0        10.2       0.282
  WS02003069           JUNCTION      0.32  1346.93     0  02:00     0.00902        19.9       0.175
  WS02003072           JUNCTION      0.00  1346.96     0  02:01           0        19.9       0.210
  WS02003073           JUNCTION      1.82  1348.94     0  02:01      0.0514        19.9       0.243
  WS02003060           JUNCTION     16.53  1346.65     0  02:00       0.466        19.9       0.166
  WS02003066           JUNCTION      0.00   957.25     0  01:55           0        9.35       0.048
  WS02003059           JUNCTION      0.00   396.13     0  04:30           0        10.2       0.399
  WS02003067           JUNCTION      0.00   956.95     0  01:54           0        9.36       0.100
  WS02004401           JUNCTION      0.00   968.12     0  01:52           0        9.59       0.211
  WS02004402           JUNCTION      0.00   968.64     0  01:52           0        9.57       0.200
  WS02004403           JUNCTION      0.00   969.63     0  01:52           0        9.55       0.185
  WS02004404           JUNCTION      0.16   970.88     0  01:52     0.00457        9.53       0.140
  WS02004406           JUNCTION      0.00   972.63     0  01:52           0         9.5       0.341
  WS02004409           JUNCTION      0.00   969.66     0  01:52           0        9.46       0.168
  WS02004410           JUNCTION      0.00   956.87     0  01:53           0        9.45       0.193
  WS02004411           JUNCTION      0.00   954.85     0  01:54           0        9.43       0.199
  WS02004412           JUNCTION      0.00   956.39     0  01:54           0        9.41       0.215
  WS02004413           JUNCTION      0.00   956.74     0  01:54           0        9.39       0.322
  WS02004405           JUNCTION      0.04   972.44     0  01:52     0.00107        9.52       0.209
  WS02006109           JUNCTION      1.23   937.04     0  01:52      0.0347        9.59       0.178
  WS02006110           JUNCTION      0.00   936.58     0  01:52           0        9.57       0.198
  WS02006111           JUNCTION      0.00   936.50     0  01:53           0        9.54       0.037
  WS02006112           JUNCTION     30.57   966.99     0  01:52       0.112        9.65       0.299
  WS02006113           JUNCTION      0.00   936.46     0  01:53           0        9.55       0.092
  WS02006115           JUNCTION      0.00   966.96     0  01:53           0        9.62       0.199
  WS02006116           JUNCTION      0.00   967.95     0  01:52           0         9.6       0.169
  WS02006230           JUNCTION     10.28   464.64     0  02:54        0.29        6.49       0.148
  WS02006231           JUNCTION      0.00   454.36     0  02:54           0        6.21       0.149
  WS02006232           JUNCTION      0.00   454.36     0  02:54           0        6.21       0.225
  WS02006234           JUNCTION      0.00   454.36     0  02:54           0        6.22       0.099
  WS02006235           JUNCTION      0.00   454.36     0  02:54           0        6.33       0.142
  WS02006238           JUNCTION      0.00   349.22     0  07:33           0        2.57       0.182
  WS02006240           JUNCTION      0.00   354.68     0  07:32           0         2.5       0.431
  WS02006242           JUNCTION      0.00   358.68     0  07:31           0        2.47       0.577
  WS02006243           JUNCTION      0.00   362.35     0  07:31           0        2.45       0.173
  WS02006245           JUNCTION      0.00   364.01     0  07:31           0        2.45       0.555
  WS02006247           JUNCTION      0.00   365.10     0  07:31           0        2.44       0.317
  WS02006248           JUNCTION      0.00   370.79     0  07:31           0        2.46       0.097
  WS02006249           JUNCTION      0.00   495.25     0  02:20           0        2.82       0.449
  WS02006239           JUNCTION      0.00   350.61     0  07:33           0        2.53       0.266
  WS02006251           JUNCTION      0.08   494.05     0  02:20     0.00217        2.86       0.258
  WS02006252           JUNCTION      0.00   399.89     0  02:20           0        2.22       0.019
  WS02006253           JUNCTION      3.87   156.77     0  01:54      0.0129       0.638       0.565
  WS02006256           JUNCTION      0.00   983.00     0  01:50           0        12.2       0.003
  WS02004138           JUNCTION      0.00   380.00     0  00:00           0        10.1       0.068
  WS02004139           JUNCTION      0.32   394.45     0  00:00     0.00905        10.1       0.450
  WS02004407           JUNCTION      0.00   973.82     0  01:52           0        9.47       0.073
  WS02006228           JUNCTION      0.00   935.71     0  01:52           0        9.56       0.122
  WS02006229           JUNCTION      0.00   986.64     0  01:51           0        9.58       0.156
  WS02006280           JUNCTION      0.00   736.11     0  01:54           0        3.11       0.012
  WS02006284           JUNCTION      0.10   735.85     0  01:54      0.0027        3.11       0.020
  WS02006287           JUNCTION      0.00   735.65     0  01:54           0        3.11       0.023
  WSF200               JUNCTION      0.00   957.43     0  01:55           0        9.35       0.043
  HS02004901           JUNCTION     37.34    37.34     0  01:51       0.136       0.136       1.311
  HS02004881           JUNCTION     14.85   153.29     0  01:54       0.053       0.601       0.080
  HS02004876           JUNCTION     26.74   139.07     0  01:54       0.103       0.549       0.099
  HS02004870           JUNCTION     27.42   112.65     0  01:54         0.1       0.446       0.024
  HS02004862           JUNCTION     26.01    86.18     0  01:54       0.116       0.346       0.050
  HS02004856           JUNCTION     20.52    60.23     0  01:54      0.0756       0.231       0.631
  HS02004852           JUNCTION      0.00    40.37     0  01:54           0       0.155       0.036
  HS02004848           JUNCTION     56.97    56.97     0  01:56       0.261       0.261       0.018
  HS02004842           JUNCTION      0.00    18.18     0  02:06           0       0.119      12.306
  HS02004837           JUNCTION     52.39    67.87     0  01:54       0.353       0.459       0.177
  HS02004830           JUNCTION      0.15    67.98     0  01:54     0.00423       0.449       0.275
  HS02004824           JUNCTION     66.79   134.68     0  01:56       0.318       0.767       0.071
  HS02004817           JUNCTION      0.60   136.91     0  01:57      0.0169       0.783       2.175
  HS02004807           JUNCTION     50.62   184.20     0  01:55       0.184       0.952       0.460
  HS02004802           JUNCTION      0.00   183.89     0  01:56           0        0.95       0.419
  HS02004799           JUNCTION     40.40   470.76     0  01:53        0.15        1.87       0.159
  HS02004792           JUNCTION    183.39   430.98     0  01:53       0.729        1.72       0.023
  HS02004788           JUNCTION     59.53   248.80     0  01:53       0.273       0.991       0.039
  HS02004785           JUNCTION      0.15   189.56     0  01:53     0.00423        0.72       0.069
  HS02004777           JUNCTION      0.03   189.72     0  01:52    0.000846        0.72       0.728
  HS02004770           JUNCTION    153.57   190.38     0  01:52       0.587       0.722       0.429
  HS02004480           JUNCTION      0.00   554.34     0  01:53           0        2.18       0.044
  HS02004479           JUNCTION      0.00    83.76     0  01:53           0       0.323       0.229
  HS02004478           JUNCTION      0.00   735.60     0  01:54           0        3.11       0.011
  YS02001745           JUNCTION    446.25   446.25     0  02:16        3.95        3.95       0.275
  YS02001748           JUNCTION      0.04   451.97     0  02:16     0.00127        3.94       0.582
  YS02001751           JUNCTION      0.01   451.99     0  02:16     0.00031        3.92       0.616
  YS02001754           JUNCTION      0.26   452.65     0  02:16     0.00733        3.91       0.631
  YS02001762           JUNCTION      0.00   434.19     0  01:55           0        2.36       0.916
  YS02001765           JUNCTION      0.00   435.31     0  01:55           0        2.36       1.040
  YS02001767           JUNCTION      0.54   436.27     0  01:55      0.0151        2.38       1.517
  YS02001770           JUNCTION    558.16   699.13     0  02:43        4.36        5.45       0.580
  YS02001774           JUNCTION      0.00   699.14     0  02:43           0        4.14       0.606
  YS02001779           JUNCTION      0.01   699.15     0  02:43    0.000141        4.11       0.384
  YS02001882           JUNCTION      0.00    26.43     0  01:48           0      0.0374       5.741
  YS02001884           JUNCTION      0.00    40.59     0  01:48           0      0.0766       8.607
  YS02001759           JUNCTION    542.57   879.62     0  01:57        4.04        5.28       0.434
  YS02001887           JUNCTION    676.21   677.39     0  02:13        4.57        4.61       0.190
  YS02001890           JUNCTION      0.00   677.37     0  02:12           0        4.56       0.200
  YS02001898           JUNCTION      0.00   541.83     0  01:52           0        4.27       0.077
  YS02001901           JUNCTION      0.00   543.22     0  01:52           0        4.27       0.151
  YS02001904           JUNCTION      0.00   543.43     0  01:52           0        4.27       0.138
  YS02001907           JUNCTION      0.00  1176.01     0  01:54           0        9.98       0.242
  YS02001910           JUNCTION      0.00   654.57     0  01:54           0        5.73       0.218
  YS02001915           JUNCTION    394.70   654.74     0  01:54        3.28        5.77       0.096
  YS02001918           JUNCTION      0.00   356.85     0  01:54           0        2.52       0.056
  YS02001619           JUNCTION    388.44   388.44     0  02:16         3.3         3.3       0.366
  YS02001629           JUNCTION      0.00   219.49     0  01:48           0        1.43       2.063
  YS02001641           JUNCTION      0.00   455.74     0  01:48           0        5.09       0.411
  YS02001644           JUNCTION    424.99  1531.60     0  02:42        3.82        15.2       0.179
  YS02001652           JUNCTION      0.00   519.09     0  02:12           0        3.44       0.679
  YS02001655           JUNCTION      0.15   519.07     0  02:12     0.00434        3.46       0.734
  YS02001920           JUNCTION      2.87   355.81     0  01:54      0.0809         2.5       0.117
  YS02001923           JUNCTION      0.04   296.03     0  01:54     0.00106         2.4       0.047
  YS02001926           JUNCTION      0.05   231.24     0  01:54     0.00147        2.38       0.131
  YS02001929           JUNCTION    206.66   206.66     0  03:01        2.37        2.37       0.024
  YS02001658           JUNCTION      0.00   526.61     0  02:02           0        3.48       0.698
  YS02001661           JUNCTION      0.00   741.97     0  01:55           0         3.7      -0.033
  YS02001664           JUNCTION    496.40   496.40     0  02:16        3.49        3.71       0.146
  YS02001622           JUNCTION      0.00   389.29     0  02:15           0        3.29       0.977
  YS02001633           JUNCTION    431.52   456.69     0  01:48        3.93        5.24       0.611
  YS02001649           JUNCTION      0.00  1003.85     0  01:49           0        8.05       0.463
  YS02001757           JUNCTION      0.00  2148.14     0  01:55           0        9.99       0.919
  YS02001895           JUNCTION      0.00   540.95     0  01:52           0        4.28       0.117
  YS02001625           JUNCTION      0.00   434.94     0  02:16           0        3.34       1.187
  YS02163301           JUNCTION      0.00   224.26     0  01:45           0        1.42       1.717
  YS02163601           JUNCTION      0.11   456.98     0  01:48      0.0031        5.11       0.589
  YS02164001           JUNCTION      0.00   456.79     0  01:48           0        5.09       0.395
  YS02001647           JUNCTION      0.00   774.21     0  03:09           0        7.28       0.389
  YSB1154              JUNCTION     46.91    46.91     0  01:52        0.18       0.181       0.805
  YSB6556              JUNCTION      0.00    46.64     0  01:52           0       0.182       0.696
  YSB1174              JUNCTION     39.22    39.22     0  01:50       0.134       0.134       0.962
  YSB1171              JUNCTION      0.00    84.01     0  01:52           0       0.322       2.012
  YS02006553           JUNCTION      0.00   717.55     0  03:35           0        7.35       0.212
  YS02006561           JUNCTION      0.00  1087.62     0  01:52           0        11.5       0.006
  YS02006556           JUNCTION      0.00   717.72     0  03:35           0        7.36       0.148
  YS02006558           JUNCTION    590.63  1089.03     0  01:52        4.24        11.6       0.044
  YS02001783           JUNCTION      0.00  1068.74     0  01:52           0        11.5       0.021
  YS02001784           JUNCTION      1.06  1070.97     0  01:52      0.0299        11.6       0.031
  YS02001786           JUNCTION      0.06  1072.11     0  01:52     0.00159        11.6       0.029
  YS02001788           JUNCTION      0.07  1074.15     0  01:52       0.002        11.6       0.016
  YS02001790           JUNCTION      0.15  1068.10     0  01:52     0.00437        11.6       0.012
  YS02001791           JUNCTION      0.00  1068.52     0  01:52           0        11.6       0.010
  YS02001793           JUNCTION      0.00  1069.31     0  01:52           0        11.6      -0.018
  WSC                  OUTFALL       0.00  1349.57     0  02:02           0        19.8       0.000
  JK-storage           STORAGE       0.00  1069.57     0  01:52           0        11.7      -8.320
  CC-storage           STORAGE       0.00  2149.59     0  01:55           0        6.18       1.034
  XR-storage           STORAGE    1054.62  1054.62     0  03:01        15.5        16.1      -0.000
  
  
  **********************
  Node Surcharge Summary
  **********************
  
  Surcharging occurs when water rises above the top of the highest conduit.
  ---------------------------------------------------------------------
                                               Max. Height   Min. Depth
                                   Hours       Above Crown    Below Rim
  Node                 Type      Surcharged         Meters       Meters
  ---------------------------------------------------------------------
  WS02004401           JUNCTION        1.19          0.303        1.357
  WS02004402           JUNCTION        1.22          0.290        1.450
  WS02004403           JUNCTION        1.22          0.264        1.766
  WS02004404           JUNCTION        1.35          0.304        2.476
  WS02004406           JUNCTION        1.30          0.201        2.249
  WS02004413           JUNCTION        0.48          0.031        2.169
  WS02004405           JUNCTION        1.33          0.273        2.527
  WS02006109           JUNCTION        2.43          0.934        0.886
  WS02006110           JUNCTION        1.47          0.643        1.207
  WS02006111           JUNCTION        0.36          0.206        1.664
  WS02006112           JUNCTION        1.84          0.659        1.021
  WS02006113           JUNCTION        0.40          0.456        1.474
  WS02006115           JUNCTION        0.77          0.299        1.951
  WS02006116           JUNCTION        0.83          0.283        2.007
  WS02006230           JUNCTION        1.33          0.899        0.671
  WS02006231           JUNCTION        1.38          0.897        0.633
  WS02006232           JUNCTION        2.54          0.998        0.482
  WS02006234           JUNCTION        1.87          0.872        0.368
  WS02006235           JUNCTION        2.11          0.885        0.405
  WS02006238           JUNCTION        2.23          0.892        0.538
  WS02006240           JUNCTION        1.55          0.729        0.661
  WS02006242           JUNCTION        1.64          0.729        0.091
  WS02006243           JUNCTION        1.26          0.584        0.186
  WS02006245           JUNCTION        1.18          0.515        0.335
  WS02006247           JUNCTION        1.18          0.494        0.266
  WS02006248           JUNCTION        1.15          0.380        0.000
  WS02006249           JUNCTION        1.16          0.390        0.000
  WS02006239           JUNCTION        1.79          0.795        0.495
  WS02006251           JUNCTION        0.84          0.159        1.021
  WS02006252           JUNCTION        1.28          0.326        0.774
  WS02006253           JUNCTION        1.06          0.276        2.204
  WS02006256           JUNCTION        7.05          2.050        0.000
  WS02006228           JUNCTION        2.39          1.104        1.096
  HS02004817           JUNCTION        0.14          0.011        1.729
  YS02001748           JUNCTION        6.04          0.427        0.763
  YS02001751           JUNCTION        6.08          0.577        0.623
  YS02001754           JUNCTION        6.14          0.792        0.358
  YS02001762           JUNCTION        6.19          1.040        0.110
  YS02001765           JUNCTION        6.18          0.988        0.112
  YS02001767           JUNCTION        6.18          0.941        0.089
  YS02001770           JUNCTION        6.18          0.895        0.025
  YS02001774           JUNCTION        6.19          0.984        0.066
  YS02001779           JUNCTION        6.13          0.680        0.000
  YS02001882           JUNCTION        1.79          0.639        0.191
  YS02001884           JUNCTION        1.81          0.677        0.193
  YS02001759           JUNCTION        6.20          1.082        0.128
  YS02001887           JUNCTION        1.87          0.763        0.187
  YS02001890           JUNCTION        1.89          0.760        0.000
  YS02001898           JUNCTION        1.76          0.536        0.204
  YS02001901           JUNCTION        1.84          0.678        0.192
  YS02001904           JUNCTION        1.82          0.637        0.213
  YS02001907           JUNCTION        2.38          0.950        0.000
  YS02001910           JUNCTION        1.93          0.811        0.289
  YS02001915           JUNCTION        1.78          0.655        0.345
  YS02001918           JUNCTION        1.62          0.392        0.418
  YS02001619           JUNCTION        6.09          0.601        0.009
  YS02001629           JUNCTION        6.08          0.470        0.000
  YS02001641           JUNCTION        6.18          0.935        0.165
  YS02001644           JUNCTION        6.19          0.920        0.000
  YS02001652           JUNCTION        6.15          0.987        0.143
  YS02001655           JUNCTION        6.10          0.918        0.282
  YS02001920           JUNCTION        1.65          0.498        0.642
  YS02001923           JUNCTION        0.01          0.069        0.751
  YS02001926           JUNCTION        0.01          0.120        0.780
  YS02001658           JUNCTION        6.05          0.748        0.552
  YS02001661           JUNCTION        0.09          0.771        0.619
  YS02001622           JUNCTION        6.10          0.588        0.032
  YS02001633           JUNCTION        6.17          0.933        0.127
  YS02001649           JUNCTION        6.19          1.050        0.000
  YS02001757           JUNCTION        6.23          1.182        0.028
  YS02001895           JUNCTION        1.77          0.567        0.183
  YS02001625           JUNCTION        6.15          0.780        0.000
  YS02163301           JUNCTION        6.17          0.892        0.138
  YS02163601           JUNCTION        6.20          0.989        0.091
  YS02164001           JUNCTION        6.17          0.917        0.183
  YS02001647           JUNCTION        6.15          0.799        0.101
  YS02006553           JUNCTION        2.45          0.971        0.219
  YS02006561           JUNCTION        1.65          0.281        0.869
  YS02006556           JUNCTION        2.10          0.897        0.453
  YS02006558           JUNCTION        2.08          0.877        0.523
  YS02001783           JUNCTION        1.89          0.669        0.931
  YS02001784           JUNCTION        1.86          0.608        0.882
  YS02001786           JUNCTION        1.77          0.446        0.984
  YS02001788           JUNCTION        1.68          0.307        1.173
  YS02001790           JUNCTION        2.62          0.536        0.621
  YS02001791           JUNCTION        2.72          0.715        1.205
  YS02001793           JUNCTION        3.00          0.912        1.688
  
  
  *********************
  Node Flooding Summary
  *********************
  
  Flooding refers to all water that overflows a node, whether it ponds or not.
  --------------------------------------------------------------------------
                                                             Total   Maximum
                                 Maximum   Time of Max       Flood    Ponded
                        Hours       Rate    Occurrence      Volume     Depth
  Node                 Flooded       LPS   days hr:min    10^6 ltr    Meters
  --------------------------------------------------------------------------
  WS02006248              0.23     60.98      0  01:53       0.024     0.000
  WS02006249              0.96    313.59      0  02:20       0.350     0.000
  WS02006256              4.31    838.37      0  01:52       8.318     0.000
  YS02001779              3.73    699.15      0  02:43       4.096     0.000
  YS02001890              0.78    161.38      0  02:13       0.270     0.000
  YS02001907              1.50    716.79      0  02:15       2.616     0.000
  YS02001629              0.01      2.17      0  01:47       0.000     0.000
  YS02001644              5.68   1531.60      0  02:42      14.228     0.000
  YS02001649              0.01     22.85      0  04:08       0.000     0.000
  YS02001625              2.13    434.84      0  02:16       1.967     0.000
  JK-storage              0.58    474.51      0  04:33       0.488     0.000
  XR-storage              4.70    674.58      0  03:01       5.154     0.000
  
  
  **********************
  Storage Volume Summary
  **********************
  
  --------------------------------------------------------------------------------------------------
                         Average     Avg  Evap Exfil       Maximum     Max    Time of Max    Maximum
                          Volume    Pcnt  Pcnt  Pcnt        Volume    Pcnt     Occurrence    Outflow
  Storage Unit           1000 m3    Full  Loss  Loss       1000 m3    Full    days hr:min        LPS
  --------------------------------------------------------------------------------------------------
  JK-storage               0.151      52     0     0         0.291     100       0  04:31     983.00
  CC-storage               3.338      21     0     0         4.025      26       0  03:07     399.89
  XR-storage               0.843      91     0     0         0.926     100       0  02:06     380.00
  
  
  ***********************
  Outfall Loading Summary
  ***********************
  
  ---------------------------------------------------------------------------------------------------------------------------------
                         Flow       Avg       Max       Total         Total         Total         Total         Total         Total
                         Freq      Flow      Flow      Volume           COD            SS            TN            TP         NH4-N
  Outfall Node           Pcnt       LPS       LPS    10^6 ltr            kg            kg            kg            kg            kg
  ---------------------------------------------------------------------------------------------------------------------------------
  WSC                  100.00    747.33   1349.57      19.832      2446.926      4352.940       139.339        16.059        83.348
  ---------------------------------------------------------------------------------------------------------------------------------
  System               100.00    747.33   1349.57      19.832      2446.926      4352.940       139.339        16.059        83.348
  
  
  ********************
  Link Flow Summary
  ********************
  
  -----------------------------------------------------------------------------
                                 Maximum  Time of Max   Maximum    Max/    Max/
                                  |Flow|   Occurrence   |Veloc|    Full    Full
  Link                 Type          LPS  days hr:min     m/sec    Flow   Depth
  -----------------------------------------------------------------------------
  WS02003066WSF200     CONDUIT    957.43     0  01:55      3.01    0.16    0.32
  WS02006287WS02006284 CONDUIT    735.75     0  01:54      2.45    0.34    0.41
  WS02006284WS02006280 CONDUIT    736.11     0  01:54      2.68    0.31    0.38
  WS02006280WS02006229 CONDUIT    736.22     0  01:54      4.16    0.16    0.57
  WS02006229WS02006228 CONDUIT    935.71     0  01:52      1.86    3.10    1.00
  WS02006256WS02006235 CONDUIT    259.48     0  00:28      3.67    2.75    1.00
  WS02006253WS02006251 CONDUIT    168.03     0  01:51      0.72    0.50    1.00
  WS02006252WS02006251 CONDUIT    400.00     0  07:30      3.18    1.47    1.00
  WS02006251WS02006249 CONDUIT    495.25     0  02:20      1.29    1.43    1.00
  WS02006249WS02006248 CONDUIT    370.79     0  07:31      1.12    2.03    1.00
  WS02006248WS02006247 CONDUIT    365.10     0  07:31      1.07    0.79    1.00
  WS02006247WS02006245 CONDUIT    364.01     0  07:31      1.04    2.89    1.00
  WS02006245WS02006243 CONDUIT    362.35     0  07:31      1.06    1.07    1.00
  WS02006243WS02006242 CONDUIT    358.68     0  07:31      0.99    0.77    1.00
  WS02006242WS02006240 CONDUIT    354.68     0  07:32      0.96    1.41    1.00
  WS02006240WS02006239 CONDUIT    350.61     0  07:33      1.00    1.10    1.00
  WS02006239WS02006238 CONDUIT    349.22     0  07:33      0.95    1.12    1.00
  WS02006238WS02006235 CONDUIT    348.95     0  07:33      0.94    0.78    1.00
  WS02006235WS02006234 CONDUIT    454.36     0  02:54      1.18    4.79    1.00
  WS02006234WS02006232 CONDUIT    454.36     0  02:54      1.18    0.92    1.00
  WS02006232WS02006231 CONDUIT    454.36     0  02:54      1.18    0.95    1.00
  WS02006231WS02006230 CONDUIT    454.36     0  02:54      1.35    6.89    1.00
  WS02006230WS02006229 CONDUIT    464.64     0  02:54      1.21   10.34    1.00
  WS02006228WS02006109 CONDUIT    935.81     0  01:52      1.86    4.09    1.00
  WS02006116WS02004401 CONDUIT    968.12     0  01:52      1.23    1.33    1.00
  WS02006115WS02006116 CONDUIT    967.95     0  01:52      1.23    1.24    1.00
  WS02006113WS02006111 CONDUIT    936.50     0  01:53      2.62    1.12    1.00
  WS02006112WS02006115 CONDUIT    966.96     0  01:53      1.23    0.57    1.00
  WS02006111WS02006112 CONDUIT    936.73     0  01:52      1.86    0.45    1.00
  WS02006110WS02006113 CONDUIT    936.46     0  01:53      1.86    0.85    1.00
  WS02006109WS02006110 CONDUIT    936.58     0  01:52      1.86    1.80    1.00
  WS02004411WS02004412 CONDUIT    956.39     0  01:54      1.26    1.36    0.93
  WS02004401WS02004402 CONDUIT    968.64     0  01:52      1.23    1.16    1.00
  WS02004413WS02003067 CONDUIT    956.95     0  01:54      1.57    0.41    0.72
  WS02004412WS02004413 CONDUIT    956.74     0  01:54      1.24    0.64    0.96
  WS02004410WS02004411 CONDUIT    954.85     0  01:54      1.24    1.30    0.95
  WS02004409WS02004410 CONDUIT    956.87     0  01:53      1.24    1.24    0.97
  WS02004407WS02004409 CONDUIT    969.66     0  01:52      1.73    0.34    0.69
  WS02004406WS02004407 CONDUIT    973.82     0  01:52      1.65    0.44    0.70
  WS02004405WS02004406 CONDUIT    972.63     0  01:52      1.24    1.92    1.00
  WS02004404WS02004405 CONDUIT    972.40     0  01:52      1.24    9.53    1.00
  WS02004403WS02004404 CONDUIT    970.72     0  01:52      1.24    0.70    1.00
  WS02004402WS02004403 CONDUIT    969.63     0  01:52      1.23    1.39    1.00
  WS02004139WS02001211 CONDUIT    382.05     0  03:09      0.90    0.48    0.64
  WS02004138WS02004139 CONDUIT    394.13     0  00:00      3.62    0.08    0.47
  WS02003067WS02003066 CONDUIT    957.25     0  01:55      1.67    0.31    0.51
  WS02001213WS02003059 CONDUIT    396.13     0  04:30      0.89    0.65    0.88
  WS02001212WS02001213 CONDUIT    392.97     0  04:30      1.32    0.61    0.56
  WS02001211WS02001212 CONDUIT    391.28     0  03:10      0.78    0.30    0.72
  WS02003072WS02003073 CONDUIT   1347.12     0  02:01      1.97    2.91    0.58
  WS02003069WS02003072 CONDUIT   1346.96     0  02:01      1.82    0.65    0.62
  WS02003060WS02003069 CONDUIT   1346.61     0  02:00      2.03    0.53    0.57
  WS02003059WS02003060 CONDUIT    400.52     0  04:30      0.95    0.26    0.78
  HS02004901HS02004770 CONDUIT     36.85     0  01:52      0.10    0.14    0.54
  HS02004876HS02004881 CONDUIT    139.08     0  01:54      1.26    1.48    0.16
  HS02004870HS02004876 CONDUIT    112.62     0  01:54      0.85    0.07    0.19
  HS02004842HS02004848 CONDUIT     18.18     0  02:06      0.08    0.01    0.34
  HS02004837HS02004842 CONDUIT     18.64     0  02:07      0.42    0.01    0.35
  HS02004830HS02004837 CONDUIT     67.83     0  01:54      0.68    0.07    0.14
  HS02004824HS02004830 CONDUIT     68.04     0  01:56      0.62    0.09    0.18
  HS02004817HS02004824 CONDUIT    136.31     0  01:57      0.32    0.06    0.60
  HS02004770HS02004777 CONDUIT    189.69     0  01:52      0.49    0.35    0.55
  HS02004799HS02004480 CONDUIT    470.63     0  01:53      1.09    0.59    0.62
  HS02004792HS02004799 CONDUIT    430.88     0  01:53      1.22    0.26    0.50
  HS02004788HS02004792 CONDUIT    248.73     0  01:54      1.29    0.16    0.28
  HS02004785HS02004788 CONDUIT    189.53     0  01:53      0.92    1.43    0.30
  HS02004777HS02004785 CONDUIT    189.41     0  01:53      0.59    0.23    0.46
  HS02004480HS02004478 CONDUIT    554.38     0  01:53      1.59    2.33    0.50
  HS02004479HS02004480 CONDUIT     83.72     0  01:53      0.37    0.08    0.59
  HS02004862HS02004870 CONDUIT     86.18     0  01:55      0.82    0.09    0.15
  HS02004848HS02004852 CONDUIT     40.37     0  01:54      0.54    0.05    0.11
  HS02004856HS02004862 CONDUIT     60.18     0  01:54      0.61    0.06    0.14
  HS02004852HS02004856 CONDUIT     40.43     0  01:55      0.35    0.05    0.17
  HS02004802HS02004478 CONDUIT    184.69     0  01:57      0.53    0.16    0.50
  HS02004478WS02006287 CONDUIT    735.65     0  01:54      2.18    0.21    0.38
  HS02004817HS02004807 CONDUIT    137.17     0  01:57      0.26    0.08    0.77
  HS02004807HS02004802 CONDUIT    183.89     0  01:56      0.47    0.35    0.56
  YS02001759YS02001757 CONDUIT    878.61     0  01:57      1.12    0.62    1.00
  YS02001762YS02001759 CONDUIT    434.66     0  01:55      0.55    0.50    1.00
  YS02001765YS02001762 CONDUIT    434.19     0  01:55      0.55    0.41    1.00
  YS02001770YS02001767 CONDUIT    435.74     0  01:55      0.55    1.73    1.00
  YS02001774YS02001770 CONDUIT    699.14     0  02:43      0.89    0.45    1.00
  YS02001779YS02001774 CONDUIT    699.15     0  02:43      0.89    0.35    1.00
  YS02001649YS02001757 CONDUIT   1004.17     0  01:52      1.28    0.61    1.00
  YS02001767YS02001765 CONDUIT    435.31     0  01:55      0.55    0.55    1.00
  YS02006561YS02001783 CONDUIT   1068.74     0  01:52      2.14    0.55    1.00
  YS02001783YS02001784 CONDUIT   1069.91     0  01:52      2.13    1.47    1.00
  YS02001784YS02001785 CONDUIT   1072.05     0  01:52      2.13    2.49    1.00
  YS02001788YS02001790 CONDUIT   1067.94     0  01:52      2.44    0.79    1.00
  YS02001790YS02001791 CONDUIT   1068.52     0  01:52      2.92    1.16    1.00
  YS02001791YS02001793 CONDUIT   1069.31     0  01:52      5.77    0.46    1.00
  YS02001910YS02001907 CONDUIT    655.57     0  01:54      0.83    0.37    1.00
  YS02001786YS02001788 CONDUIT   1074.08     0  01:52      2.31    2.07    1.00
  YS02001915YS02001910 CONDUIT    654.57     0  01:54      0.83    0.33    1.00
  YS02001918YS02001915 CONDUIT    358.30     0  01:54      0.48    0.20    1.00
  YS02001923YS02001920 CONDUIT    352.94     0  01:54      0.81    0.16    1.00
  YS02001926YS02001923 CONDUIT    295.99     0  01:54      0.92    0.42    1.00
  YS02001929YS02001926 CONDUIT    231.19     0  01:54      0.98    0.11    0.95
  YS02001920YS02001918 CONDUIT    356.85     0  01:54      0.77    0.35    1.00
  YS02001629YS02163301 CONDUIT    224.26     0  01:45      0.29    0.28    1.00
  YS02001619YS02001622 CONDUIT    389.29     0  02:15      0.74    0.57    1.00
  YS02001622YS02001625 CONDUIT    388.77     0  02:16      0.49    0.21    1.00
  YS02001625YS02001629 CONDUIT    219.49     0  01:48      0.29    0.10    1.00
  YS02163301YS02001633 CONDUIT    225.84     0  01:45      0.29    0.21    1.00
  YS02163601YS02164001 CONDUIT    456.79     0  01:48      0.58    0.40    1.00
  YS02164001YS02001641 CONDUIT    455.74     0  01:48      0.58    0.62    1.00
  YS02001641YS02001644 CONDUIT    455.65     0  01:48      0.58    1.47    1.00
  YS02001647YS02001649 CONDUIT    774.21     0  03:09      0.99    0.41    1.00
  YS02006553YS02006556 CONDUIT    717.72     0  03:35      0.91    0.61    1.00
  YS02006556YS02006558 CONDUIT    717.98     0  03:35      0.91    0.57    1.00
  YSB6556YSB1171       CONDUIT     46.62     0  01:54      0.14    0.05    0.84
  YS02001907YS02006553 CONDUIT    717.55     0  03:35      0.80    0.84    1.00
  YS02006558YS02006561 CONDUIT   1087.62     0  01:52      3.85    2.40    1.00
  YS02001633YS02163601 CONDUIT    456.87     0  01:48      0.58    0.48    1.00
  YS02001644YS02001647 CONDUIT    774.24     0  03:09      0.99    0.45    1.00
  YS02001745YS02001748 CONDUIT    451.93     0  02:16      1.67    0.17    0.97
  YS02001748YS02001751 CONDUIT    451.98     0  02:16      1.21    0.23    1.00
  YS02001751YS02001754 CONDUIT    452.39     0  02:16      1.02    0.22    1.00
  YS02001754YS02001757 CONDUIT    452.00     0  02:16      0.58    0.18    1.00
  YS02001882YS02001884 CONDUIT     26.43     0  01:48      0.16    0.03    1.00
  YS02001884YS02001887 CONDUIT     40.59     0  01:48      0.12    0.05    1.00
  YS02001890YS02001895 CONDUIT    540.95     0  01:52      0.69    0.25    1.00
  YS02001895YS02001898 CONDUIT    541.83     0  01:52      0.69    0.94    1.00
  YS02001898YS02001901 CONDUIT    543.22     0  01:52      0.69    0.35    1.00
  YS02001901YS02001904 CONDUIT    543.43     0  01:52      0.69    0.84    1.00
  YS02001904YS02001907 CONDUIT    543.26     0  01:52      0.69    0.19    1.00
  YS02001887YS02001890 CONDUIT    677.37     0  02:12      0.86    1.16    1.00
  YS02001652YS02001649 CONDUIT    520.39     0  02:09      0.71    0.26    1.00
  YS02001655YS02001652 CONDUIT    519.09     0  02:12      1.09    0.25    1.00
  YS02001658YS02001655 CONDUIT    518.92     0  02:12      1.41    0.22    1.00
  YS02001661YS02001658 CONDUIT    526.61     0  02:02      1.78    0.21    1.00
  YS02001664YS02001661 CONDUIT    741.97     0  01:55      1.69    0.23    0.76
  YSB1154YSB6556       CONDUIT     46.64     0  01:52      0.16    0.08    0.75
  YSB1174YSB1171       CONDUIT     38.38     0  01:50      0.11    0.06    0.87
  YSB1171HS02004479    CONDUIT     83.76     0  01:53      0.54    0.06    0.70
  HS02004881HS02006253 CONDUIT    153.29     0  01:54      2.62    0.03    0.54
  YS02001793JiankangQianchi CONDUIT   1069.57     0  01:52     16.70    0.08    1.00
  YS02001757CaochengTiaoxuchi CONDUIT   2149.59     0  01:55      3.55    0.94    1.00
  WSF200WS02003060     CONDUIT    957.46     0  01:55      1.97    0.21    0.45
  1                    CONDUIT   1349.57     0  02:02      3.60    0.47    0.48
  CC-Pump-1            PUMP       200.00     0  02:20              1.00
  CC-Pump-2            PUMP       199.89     0  02:20              1.00
  JK-Pump-1            PUMP       300.00     0  01:50              1.00
  JK-Pump-2            PUMP       683.00     0  01:50              1.00
  XR-Pump-1            PUMP        95.00     0  00:00              1.00
  XR-Pump-2            PUMP        95.00     0  00:00              1.00
  XR-Pump-3            PUMP        95.00     0  00:00              1.00
  XR-Pump-4            PUMP        95.00     0  00:00              1.00
  
  
  ***************************
  Flow Classification Summary
  ***************************
  
  -------------------------------------------------------------------------------------
                      Adjusted    ---------- Fraction of Time in Flow Class ---------- 
                       /Actual         Up    Down  Sub   Sup   Up    Down  Norm  Inlet 
  Conduit               Length    Dry  Dry   Dry   Crit  Crit  Crit  Crit  Ltd   Ctrl  
  -------------------------------------------------------------------------------------
  WS02003066WSF200        1.00   0.01  0.03  0.00  0.00  0.96  0.00  0.00  0.62  0.00
  WS02006287WS02006284    1.00   0.03  0.01  0.00  0.60  0.35  0.00  0.00  0.63  0.00
  WS02006284WS02006280    1.00   0.04  0.00  0.00  0.00  0.00  0.00  0.96  0.00  0.00
  WS02006280WS02006229    1.00   0.04  0.00  0.00  0.03  0.04  0.00  0.89  0.02  0.00
  WS02006229WS02006228    1.00   0.00  0.00  0.00  1.00  0.00  0.00  0.00  0.00  0.00
  WS02006256WS02006235    1.00   0.01  0.00  0.00  0.99  0.00  0.00  0.00  0.00  0.00
  WS02006253WS02006251    1.00   0.01  0.02  0.00  0.95  0.00  0.01  0.00  0.00  0.00
  WS02006252WS02006251    1.00   0.11  0.00  0.00  0.12  0.00  0.77  0.00  0.00  0.00
  WS02006251WS02006249    1.00   0.00  0.00  0.00  1.00  0.00  0.00  0.00  0.28  0.00
  WS02006249WS02006248    1.00   0.00  0.00  0.00  0.88  0.00  0.12  0.00  0.00  0.00
  WS02006248WS02006247    1.00   0.01  0.00  0.00  0.98  0.00  0.00  0.01  0.15  0.00
  WS02006247WS02006245    1.00   0.01  0.00  0.00  0.96  0.00  0.00  0.03  0.00  0.00
  WS02006245WS02006243    1.00   0.01  0.00  0.00  0.92  0.00  0.00  0.07  0.01  0.00
  WS02006243WS02006242    1.00   0.01  0.00  0.00  0.98  0.00  0.00  0.00  0.22  0.00
  WS02006242WS02006240    1.00   0.01  0.00  0.00  0.98  0.00  0.01  0.00  0.00  0.00
  WS02006240WS02006239    1.00   0.01  0.00  0.00  0.95  0.00  0.00  0.04  0.02  0.00
  WS02006239WS02006238    1.00   0.01  0.00  0.00  0.99  0.00  0.00  0.00  0.05  0.00
  WS02006238WS02006235    1.00   0.01  0.00  0.00  0.99  0.00  0.00  0.00  0.00  0.00
  WS02006235WS02006234    1.00   0.01  0.00  0.00  0.96  0.00  0.02  0.00  0.00  0.00
  WS02006234WS02006232    1.00   0.01  0.00  0.00  0.99  0.00  0.00  0.00  0.01  0.00
  WS02006232WS02006231    1.00   0.01  0.00  0.00  0.98  0.00  0.00  0.00  0.00  0.00
  WS02006231WS02006230    1.00   0.01  0.00  0.00  0.58  0.00  0.40  0.00  0.00  0.00
  WS02006230WS02006229    1.00   0.00  0.00  0.00  0.99  0.00  0.00  0.01  0.00  0.00
  WS02006228WS02006109    1.00   0.00  0.00  0.00  1.00  0.00  0.00  0.00  0.00  0.00
  WS02006116WS02004401    1.00   0.02  0.00  0.00  0.98  0.00  0.00  0.00  0.00  0.00
  WS02006115WS02006116    1.00   0.02  0.00  0.00  0.98  0.00  0.00  0.00  0.00  0.00
  WS02006113WS02006111    1.00   0.02  0.00  0.00  0.08  0.90  0.00  0.00  0.18  0.00
  WS02006112WS02006115    1.00   0.02  0.00  0.00  0.98  0.00  0.00  0.00  0.00  0.00
  WS02006111WS02006112    1.00   0.02  0.00  0.00  0.98  0.00  0.00  0.00  0.77  0.00
  WS02006110WS02006113    1.00   0.00  0.01  0.00  0.98  0.00  0.00  0.00  0.00  0.00
  WS02006109WS02006110    1.00   0.00  0.00  0.00  0.99  0.00  0.00  0.00  0.00  0.00
  WS02004411WS02004412    1.00   0.03  0.00  0.00  0.97  0.00  0.00  0.00  0.00  0.00
  WS02004401WS02004402    1.00   0.02  0.00  0.00  0.98  0.00  0.00  0.00  0.00  0.00
  WS02004413WS02003067    1.00   0.03  0.00  0.00  0.00  0.00  0.96  0.00  0.00  0.00
  WS02004412WS02004413    1.00   0.03  0.00  0.00  0.97  0.00  0.00  0.00  0.00  0.00
  WS02004410WS02004411    1.00   0.03  0.00  0.00  0.97  0.00  0.00  0.00  0.00  0.00
  WS02004409WS02004410    1.00   0.03  0.00  0.00  0.97  0.00  0.00  0.00  0.00  0.00
  WS02004407WS02004409    1.00   0.03  0.00  0.00  0.97  0.00  0.00  0.00  0.91  0.00
  WS02004406WS02004407    1.00   0.00  0.03  0.00  0.97  0.00  0.00  0.00  0.00  0.00
  WS02004405WS02004406    1.00   0.00  0.00  0.00  1.00  0.00  0.00  0.00  0.04  0.00
  WS02004404WS02004405    1.00   0.00  0.00  0.00  1.00  0.00  0.00  0.00  0.00  0.00
  WS02004403WS02004404    1.00   0.00  0.02  0.00  0.98  0.00  0.00  0.00  0.00  0.00
  WS02004402WS02004403    1.00   0.02  0.00  0.00  0.98  0.00  0.00  0.00  0.00  0.00
  WS02004139WS02001211    1.00   0.00  0.00  0.00  1.00  0.00  0.00  0.00  0.00  0.00
  WS02004138WS02004139    1.00   0.00  0.00  0.00  1.00  0.00  0.00  0.00  1.00  0.00
  WS02003067WS02003066    1.00   0.04  0.00  0.00  0.96  0.00  0.00  0.00  0.00  0.00
  WS02001213WS02003059    1.00   0.00  0.00  0.00  1.00  0.00  0.00  0.00  0.00  0.00
  WS02001212WS02001213    1.00   0.00  0.00  0.00  0.91  0.00  0.09  0.00  0.00  0.00
  WS02001211WS02001212    1.00   0.00  0.00  0.00  1.00  0.00  0.00  0.00  0.00  0.00
  WS02003072WS02003073    1.00   0.00  0.00  0.00  0.00  0.00  0.00  1.00  0.00  0.00
  WS02003069WS02003072    1.00   0.00  0.00  0.00  1.00  0.00  0.00  0.00  0.10  0.00
  WS02003060WS02003069    1.00   0.00  0.00  0.00  0.99  0.01  0.00  0.00  0.06  0.00
  WS02003059WS02003060    1.00   0.00  0.00  0.00  1.00  0.00  0.00  0.00  0.00  0.00
  HS02004901HS02004770    1.00   0.04  0.00  0.00  0.96  0.00  0.00  0.00  0.00  0.00
  HS02004876HS02004881    1.00   0.01  0.00  0.00  0.89  0.10  0.00  0.00  0.00  0.00
  HS02004870HS02004876    1.00   0.00  0.00  0.00  1.00  0.00  0.00  0.00  0.95  0.00
  HS02004842HS02004848    1.00   0.00  0.04  0.00  0.96  0.00  0.00  0.00  0.56  0.00
  HS02004837HS02004842    1.00   0.00  0.00  0.00  1.00  0.00  0.00  0.00  0.11  0.00
  HS02004830HS02004837    1.00   0.00  0.00  0.00  1.00  0.00  0.00  0.00  0.99  0.00
  HS02004824HS02004830    1.00   0.00  0.00  0.00  1.00  0.00  0.00  0.00  0.03  0.00
  HS02004817HS02004824    1.00   0.00  0.00  0.00  1.00  0.00  0.00  0.00  0.92  0.00
  HS02004770HS02004777    1.00   0.00  0.04  0.00  0.96  0.00  0.00  0.00  0.02  0.00
  HS02004799HS02004480    1.00   0.00  0.01  0.00  0.95  0.00  0.04  0.00  0.00  0.00
  HS02004792HS02004799    1.00   0.00  0.00  0.00  1.00  0.00  0.00  0.00  0.98  0.00
  HS02004788HS02004792    1.00   0.00  0.00  0.00  1.00  0.00  0.00  0.00  0.98  0.00
  HS02004785HS02004788    1.00   0.00  0.00  0.00  1.00  0.00  0.00  0.00  0.00  0.00
  HS02004777HS02004785    1.00   0.00  0.00  0.00  1.00  0.00  0.00  0.00  0.11  0.00
  HS02004480HS02004478    1.00   0.04  0.00  0.00  0.66  0.00  0.00  0.30  0.00  0.00
  HS02004479HS02004480    1.00   0.01  0.00  0.00  0.99  0.00  0.00  0.00  0.11  0.00
  HS02004862HS02004870    1.00   0.00  0.00  0.00  1.00  0.00  0.00  0.00  0.03  0.00
  HS02004848HS02004852    1.00   0.04  0.00  0.00  0.96  0.00  0.00  0.00  0.79  0.00
  HS02004856HS02004862    1.00   0.00  0.05  0.00  0.95  0.00  0.00  0.00  0.84  0.00
  HS02004852HS02004856    1.00   0.04  0.00  0.00  0.96  0.00  0.00  0.00  0.77  0.00
  HS02004802HS02004478    1.00   0.04  0.00  0.00  0.96  0.00  0.00  0.00  0.02  0.00
  HS02004478WS02006287    1.00   0.05  0.00  0.00  0.74  0.21  0.00  0.00  0.62  0.00
  HS02004817HS02004807    1.00   0.00  0.04  0.00  0.96  0.00  0.00  0.00  0.01  0.00
  HS02004807HS02004802    1.00   0.04  0.00  0.00  0.95  0.00  0.00  0.00  0.00  0.00
  YS02001759YS02001757    1.00   0.00  0.00  0.00  1.00  0.00  0.00  0.00  0.15  0.00
  YS02001762YS02001759    1.00   0.00  0.00  0.00  1.00  0.00  0.00  0.00  0.02  0.00
  YS02001765YS02001762    1.00   0.00  0.00  0.00  1.00  0.00  0.00  0.00  0.13  0.00
  YS02001770YS02001767    1.00   0.00  0.00  0.00  1.00  0.00  0.00  0.00  0.00  0.00
  YS02001774YS02001770    1.00   0.00  0.04  0.00  0.96  0.00  0.00  0.00  0.02  0.00
  YS02001779YS02001774    1.00   0.00  0.00  0.00  1.00  0.00  0.00  0.00  0.17  0.00
  YS02001649YS02001757    1.00   0.00  0.00  0.00  1.00  0.00  0.00  0.00  0.15  0.00
  YS02001767YS02001765    1.00   0.00  0.00  0.00  1.00  0.00  0.00  0.00  0.00  0.00
  YS02006561YS02001783    1.00   0.05  0.00  0.00  0.39  0.55  0.00  0.00  0.45  0.00
  YS02001783YS02001784    1.00   0.00  0.05  0.00  0.95  0.00  0.00  0.00  0.00  0.00
  YS02001784YS02001785    1.00   0.00  0.00  0.00  1.00  0.00  0.00  0.00  0.16  0.00
  YS02001788YS02001790    1.00   0.00  0.00  0.00  0.45  0.55  0.00  0.00  0.35  0.00
  YS02001790YS02001791    1.00   0.00  0.00  0.00  0.41  0.59  0.00  0.00  0.41  0.00
  YS02001791YS02001793    1.00   0.00  0.00  0.00  0.44  0.56  0.00  0.00  0.02  0.00
  YS02001910YS02001907    1.00   0.00  0.00  0.00  0.99  0.00  0.00  0.01  0.12  0.00
  YS02001786YS02001788    1.00   0.00  0.00  0.00  0.43  0.57  0.00  0.00  0.00  0.00
  YS02001915YS02001910    1.00   0.00  0.00  0.00  0.99  0.01  0.00  0.00  0.13  0.00
  YS02001918YS02001915    1.00   0.00  0.00  0.00  0.99  0.00  0.00  0.00  0.50  0.00
  YS02001923YS02001920    1.00   0.00  0.00  0.00  1.00  0.00  0.00  0.00  0.74  0.00
  YS02001926YS02001923    1.00   0.00  0.02  0.00  0.24  0.00  0.73  0.00  0.00  0.00
  YS02001929YS02001926    1.00   0.00  0.04  0.00  0.96  0.00  0.00  0.00  0.65  0.00
  YS02001920YS02001918    1.00   0.00  0.00  0.00  1.00  0.00  0.00  0.00  0.00  0.00
  YS02001629YS02163301    1.00   0.05  0.00  0.00  0.95  0.00  0.00  0.00  0.00  0.00
  YS02001619YS02001622    1.00   0.04  0.00  0.00  0.96  0.00  0.00  0.00  0.00  0.00
  YS02001622YS02001625    1.00   0.04  0.00  0.00  0.96  0.00  0.00  0.00  0.03  0.00
  YS02001625YS02001629    1.00   0.04  0.01  0.00  0.93  0.00  0.01  0.00  0.00  0.00
  YS02163301YS02001633    1.00   0.00  0.05  0.00  0.95  0.00  0.00  0.00  0.00  0.00
  YS02163601YS02164001    1.00   0.00  0.03  0.00  0.97  0.00  0.00  0.00  0.00  0.00
  YS02164001YS02001641    1.00   0.00  0.03  0.00  0.97  0.00  0.00  0.00  0.06  0.00
  YS02001641YS02001644    1.00   0.00  0.00  0.00  1.00  0.00  0.00  0.00  0.00  0.00
  YS02001647YS02001649    1.00   0.00  0.05  0.00  0.95  0.00  0.00  0.00  0.01  0.00
  YS02006553YS02006556    1.00   0.00  0.00  0.00  1.00  0.00  0.00  0.00  0.03  0.00
  YS02006556YS02006558    1.00   0.00  0.00  0.00  1.00  0.00  0.00  0.00  0.00  0.00
  YSB6556YSB1171          1.00   0.01  0.03  0.00  0.96  0.00  0.00  0.00  0.00  0.00
  YS02001907YS02006553    1.00   0.00  0.01  0.00  0.99  0.00  0.00  0.00  0.00  0.00
  YS02006558YS02006561    1.00   0.05  0.00  0.00  0.24  0.71  0.00  0.00  0.44  0.00
  YS02001633YS02163601    1.00   0.00  0.00  0.00  1.00  0.00  0.00  0.00  0.15  0.00
  YS02001644YS02001647    1.00   0.00  0.05  0.00  0.95  0.00  0.00  0.00  0.00  0.00
  YS02001745YS02001748    1.00   0.00  0.00  0.00  0.92  0.00  0.00  0.08  0.01  0.00
  YS02001748YS02001751    1.00   0.00  0.00  0.00  0.97  0.03  0.00  0.00  0.14  0.00
  YS02001751YS02001754    1.00   0.00  0.00  0.00  0.94  0.00  0.00  0.06  0.01  0.00
  YS02001754YS02001757    1.00   0.00  0.00  0.00  1.00  0.00  0.00  0.00  0.17  0.00
  YS02001882YS02001884    1.00   0.05  0.00  0.00  0.95  0.00  0.00  0.00  0.00  0.00
  YS02001884YS02001887    1.00   0.02  0.02  0.00  0.96  0.00  0.00  0.00  0.00  0.00
  YS02001890YS02001895    1.00   0.00  0.05  0.00  0.95  0.00  0.00  0.00  0.00  0.00
  YS02001895YS02001898    1.00   0.05  0.00  0.00  0.94  0.00  0.01  0.00  0.00  0.00
  YS02001898YS02001901    1.00   0.05  0.00  0.00  0.95  0.00  0.00  0.00  0.01  0.00
  YS02001901YS02001904    1.00   0.05  0.00  0.00  0.95  0.00  0.00  0.00  0.00  0.00
  YS02001904YS02001907    1.00   0.00  0.05  0.00  0.95  0.00  0.00  0.00  0.00  0.00
  YS02001887YS02001890    1.00   0.00  0.00  0.00  0.99  0.00  0.01  0.00  0.00  0.00
  YS02001652YS02001649    1.00   0.00  0.00  0.00  1.00  0.00  0.00  0.00  0.15  0.00
  YS02001655YS02001652    1.00   0.00  0.00  0.00  0.94  0.00  0.00  0.06  0.01  0.00
  YS02001658YS02001655    1.00   0.00  0.04  0.00  0.93  0.03  0.00  0.00  0.02  0.00
  YS02001661YS02001658    1.00   0.04  0.00  0.00  0.92  0.04  0.00  0.00  0.01  0.00
  YS02001664YS02001661    1.00   0.04  0.00  0.00  0.92  0.03  0.00  0.00  0.10  0.00
  YSB1154YSB6556          1.00   0.04  0.00  0.00  0.96  0.00  0.00  0.00  0.01  0.00
  YSB1174YSB1171          1.00   0.01  0.02  0.00  0.97  0.00  0.00  0.00  0.00  0.00
  YSB1171HS02004479       1.00   0.01  0.00  0.00  0.98  0.00  0.00  0.00  0.10  0.00
  HS02004881HS02006253    1.00   0.02  0.00  0.00  0.51  0.03  0.00  0.45  0.38  0.00
  YS02001793JiankangQianchi    1.00   0.00  0.00  0.00  0.71  0.29  0.00  0.00  0.37  0.00
  YS02001757CaochengTiaoxuchi    1.00   0.00  0.07  0.00  0.90  0.03  0.00  0.00  0.00  0.00
  WSF200WS02003060        1.00   0.00  0.01  0.00  0.99  0.00  0.00  0.00  0.58  0.00
  1                       1.00   0.00  0.00  0.00  0.00  1.00  0.00  0.00  0.53  0.00
  
  
  *************************
  Conduit Surcharge Summary
  *************************
  
  ----------------------------------------------------------------------------
                                                           Hours        Hours 
                         --------- Hours Full --------   Above Full   Capacity
  Conduit                Both Ends  Upstream  Dnstream   Normal Flow   Limited
  ----------------------------------------------------------------------------
  WS02006229WS02006228        2.39      2.51      2.39      4.26         2.39
  WS02006256WS02006235        5.66      5.66      7.05      4.89         0.01
  WS02006253WS02006251        1.14      1.14      1.15      0.01         0.01
  WS02006252WS02006251        0.91      0.91      1.28      0.48         0.01
  WS02006251WS02006249        1.14      1.14      1.16      0.36         0.31
  WS02006249WS02006248        1.15      1.15      1.16      1.53         0.01
  WS02006248WS02006247        1.16      1.16      1.18      0.01         0.01
  WS02006247WS02006245        1.18      1.18      1.18      2.46         0.90
  WS02006245WS02006243        1.19      1.19      1.26      0.06         0.01
  WS02006243WS02006242        1.30      1.30      1.64      0.01         0.01
  WS02006242WS02006240        1.55      1.55      1.81      0.59         0.01
  WS02006240WS02006239        1.61      1.61      1.79      0.11         0.01
  WS02006239WS02006238        1.99      1.99      2.23      0.13         0.01
  WS02006238WS02006235        2.21      2.21      2.39      0.01         0.03
  WS02006235WS02006234        1.87      1.87      2.11      5.52         0.02
  WS02006234WS02006232        2.01      2.01      2.54      0.01         0.01
  WS02006232WS02006231        1.38      1.38      2.54      0.01         0.01
  WS02006231WS02006230        1.33      1.33      1.48      5.69         0.01
  WS02006230WS02006229        3.29      3.97      3.29      6.08         3.20
[...]
  YS02001779YS02001774        6.13      6.13      6.19      0.01         0.01
  YS02001649YS02001757        6.19      6.19      6.23      0.01         0.01
  YS02001767YS02001765        6.18      6.18      6.18      0.01         0.01
  YS02006561YS02001783        1.65      1.65      1.89      0.01         0.01
  YS02001783YS02001784        1.86      1.89      1.86      2.16         1.86
  YS02001784YS02001785        1.77      1.86      1.77      2.91         1.77
  YS02001788YS02001790        1.68      1.68      2.61      0.01         0.01
  YS02001790YS02001791        2.61      2.61      2.72      1.84         1.82
  YS02001791YS02001793        2.72      2.72      3.09      0.01         0.01
  YS02001910YS02001907        1.93      1.93      2.38      0.01         0.01
  YS02001786YS02001788        1.68      1.77      1.68      2.54         1.68
  YS02001915YS02001910        1.78      1.78      1.93      0.01         0.01
  YS02001918YS02001915        1.62      1.62      1.78      0.01         0.01
  YS02001923YS02001920        1.47      1.47      1.65      0.01         0.01
  YS02001926YS02001923        0.01      0.01      0.01      0.01         0.01
  YS02001929YS02001926        0.01      0.01      0.01      0.01         0.01
  YS02001920YS02001918        1.62      1.62      1.65      0.01         0.01
  YS02001629YS02163301        6.16      6.16      6.17      0.01         0.01
  YS02001619YS02001622        6.09      6.09      6.10      0.01         0.03
  YS02001622YS02001625        6.10      6.10      6.15      0.01         0.01
  YS02001625YS02001629        6.08      6.08      6.15      0.01         0.01
  YS02163301YS02001633        6.17      6.17      6.18      0.01         0.01
  YS02163601YS02164001        6.17      6.17      6.20      0.01         0.01
  YS02164001YS02001641        6.17      6.17      6.18      0.01         0.02
  YS02001641YS02001644        6.18      6.18      6.19      2.38         2.56
  YS02001647YS02001649        6.15      6.15      6.19      0.01         0.01
  YS02006553YS02006556        2.10      2.10      2.45      0.01         0.01
  YS02006556YS02006558        2.21      2.21      2.51      0.01         0.01
  YSB6556YSB1171              0.01      0.01      0.30      0.01         0.01
  YS02001907YS02006553        2.94      2.94      3.13      0.01         0.01
  YS02006558YS02006561        1.74      2.08      1.74      2.78         1.74
  YS02001633YS02163601        6.17      6.17      6.20      0.01         0.01
  YS02001644YS02001647        6.15      6.15      6.19      0.01         0.01
  YS02001745YS02001748        0.01      0.01      6.04      0.01         0.01
  YS02001748YS02001751        6.05      6.05      6.08      0.01         0.01
  YS02001751YS02001754        6.08      6.08      6.14      0.01         0.01
  YS02001754YS02001757        6.15      6.15      6.23      0.01         0.01
  YS02001882YS02001884        1.79      1.79      1.81      0.01         0.01
  YS02001884YS02001887        1.85      1.85      1.87      0.01         0.01
  YS02001890YS02001895        1.77      1.77      1.94      0.01         0.01
  YS02001895YS02001898        1.76      1.76      1.77      0.01         0.01
  YS02001898YS02001901        1.77      1.77      1.84      0.01         0.01
  YS02001901YS02001904        1.82      1.82      1.84      0.01         0.01
  YS02001904YS02001907        1.82      1.82      2.48      0.01         0.01
  YS02001887YS02001890        1.89      1.89      1.91      0.52         0.01
  YS02001652YS02001649        6.16      6.16      6.19      0.01         0.01
  YS02001655YS02001652        6.10      6.10      6.15      0.01         0.01
  YS02001658YS02001655        6.05      6.05      6.10      0.01         0.01
  YS02001661YS02001658        0.08      0.08      6.05      0.01         0.01
  YS02001664YS02001661        0.01      0.01      1.79      0.01         0.01
  HS02004881HS02006253        0.01      0.01      1.06      0.01         0.01
  YS02001793JiankangQianchi        3.00      3.00      4.88      0.01         0.01
  YS02001757CaochengTiaoxuchi        5.75      5.75      6.23      0.01         0.01
  
  
  ***************
  Pumping Summary
  ***************
  
  ---------------------------------------------------------------------------------------------------------
                                                  Min       Avg       Max     Total     Power    % Time Off
                        Percent   Number of      Flow      Flow      Flow    Volume     Usage    Pump Curve
  Pump                 Utilized   Start-Ups       LPS       LPS       LPS  10^6 ltr     Kw-hr    Low   High
  ---------------------------------------------------------------------------------------------------------
  CC-Pump-1               51.07           8      0.00    139.05    200.00     1.860      1.38    0.0    0.0
  CC-Pump-2               12.76           3      0.00     93.13    199.89     0.360      0.44    0.0    0.0
  JK-Pump-1               65.97           4      0.00    245.28    300.00     4.437     57.13    0.0    0.0
  JK-Pump-2               57.47           3      0.00    468.75    683.00     7.735     91.02    0.0   97.8
  XR-Pump-1              100.00           1      0.00     95.00     95.00     2.679     22.56    0.0    0.0
  XR-Pump-2               97.87           2      0.00     93.22     95.00     2.508     18.90    0.0    0.0
  XR-Pump-3               95.74           3      0.00     93.21     95.00     2.451     17.66    0.0    0.0
  XR-Pump-4               95.74           3      0.00     93.21     95.00     2.451     17.66    0.0    0.0
  
  
  ***************************
  Link Pollutant Load Summary
  ***************************
  
  ------------------------------------------------------------------------------------------
                                 COD            SS            TN            TP         NH4-N
  Link                            kg            kg            kg            kg            kg
  ------------------------------------------------------------------------------------------
  WS02003066WSF200           951.892      1835.474        23.516         2.014        12.219
  WS02006287WS02006284       438.108       854.598        12.585         1.181         6.762
  WS02006284WS02006280       438.609       855.404        12.633         1.187         6.792
  WS02006280WS02006229       438.619       855.466        12.631         1.186         6.791
  WS02006229WS02006228       957.780      1847.984        23.147         1.950        11.955
  WS02006256WS02006235       259.034       486.951         5.498         0.415         2.745
  WS02006253WS02006251        81.748       165.078         1.687         0.121         0.821
  WS02006252WS02006251       246.099       475.126         4.632         0.319         2.225
  WS02006251WS02006249       322.257       629.433         6.226         0.434         3.004
  WS02006249WS02006248       276.620       538.111         5.351         0.373         2.583
  WS02006248WS02006247       273.043       530.505         5.288         0.369         2.554
  WS02006247WS02006245       272.987       530.492         5.286         0.369         2.552
  WS02006245WS02006243       272.750       530.186         5.281         0.369         2.550
  WS02006243WS02006242       273.568       531.732         5.306         0.371         2.564
  WS02006242WS02006240       273.377       531.118         5.306         0.371         2.564
  WS02006240WS02006239       274.481       532.654         5.350         0.375         2.589
  WS02006239WS02006238       276.016       534.639         5.416         0.382         2.627
  WS02006238WS02006235       277.204       536.348         5.456         0.386         2.649
  WS02006235WS02006234       524.317      1002.406        10.629         0.773         5.222
  WS02006234WS02006232       523.338      1000.496        10.612         0.772         5.214
  WS02006232WS02006231       522.308       998.550        10.592         0.770         5.204
  WS02006231WS02006230       521.616       997.350        10.578         0.770         5.198
  WS02006230WS02006229       521.577       997.097        10.593         0.772         5.207
  WS02006228WS02006109       956.118      1844.796        23.105         1.947        11.933
  WS02006116WS02004401       970.330      1870.576        23.919         2.045        12.422
  WS02006115WS02006116       972.576      1874.861        23.971         2.049        12.448
  WS02006113WS02006111       960.230      1850.307        23.784         2.036        12.368
  WS02006112WS02006115       974.560      1878.571        24.029         2.055        12.480
  WS02006111WS02006112       959.245      1848.378        23.757         2.033        12.353
  WS02006110WS02006113       961.038      1851.743        23.811         2.038        12.383
  WS02006109WS02006110       962.887      1855.065        23.884         2.046        12.425
  WS02004411WS02004412       955.494      1842.180        23.635         2.026        12.285
  WS02004401WS02004402       968.235      1866.638        23.863         2.040        12.392
  WS02004413WS02003067       952.468      1836.598        23.529         2.015        12.225
  WS02004412WS02004413       954.099      1839.572        23.593         2.022        12.262
  WS02004410WS02004411       956.779      1844.607        23.670         2.029        12.303
  WS02004409WS02004410       958.180      1847.240        23.709         2.032        12.324
  WS02004407WS02004409       959.460      1849.672        23.738         2.035        12.339
  WS02004406WS02004407       959.906      1850.547        23.742         2.035        12.340
  WS02004405WS02004406       962.318      1855.008        23.824         2.043        12.386
  WS02004404WS02004405       964.369      1859.023        23.843         2.043        12.392
  WS02004403WS02004404       964.433      1859.463        23.765         2.032        12.340
  WS02004402WS02004403       966.179      1862.745        23.813         2.036        12.366
  WS02004139WS02001211      1353.785      2294.869       101.451        12.236        62.111
  WS02004138WS02004139      1359.860      2305.127       101.901        12.290        62.386
  WS02003067WS02003066       952.058      1835.786        23.522         2.015        12.222
  WS02001213WS02003059      1387.562      2347.747       104.984        12.682        64.332
  WS02001212WS02001213      1396.472      2362.647       105.682        12.767        64.761
  WS02001211WS02001212      1398.375      2365.765       105.844        12.787        64.862
  WS02003072WS02003073      2440.979      4344.327       138.571        15.960        82.859
  WS02003069WS02003072      2445.347      4351.502       138.940        16.005        83.088
  WS02003060WS02003069      2447.727      4355.678       139.079        16.021        83.171
  WS02003059WS02003060      1384.744      2342.892       104.799        12.660        64.221
  HS02004901HS02004770        19.401        38.445         0.369         0.028         0.174
  HS02004876HS02004881        64.843       131.158         1.382         0.100         0.674
  HS02004870HS02004876        49.302        99.621         1.094         0.080         0.537
  HS02004842HS02004848         9.278        18.137         0.191         0.013         0.089
  HS02004837HS02004842        13.924        25.523         0.662         0.072         0.384
  HS02004830HS02004837        81.307       145.731         4.858         0.568         2.931
  HS02004824HS02004830        82.101       147.036         4.931         0.577         2.976
  HS02004817HS02004824       118.564       221.808         5.666         0.624         3.333
  HS02004770HS02004777        73.688       147.832         1.507         0.104         0.700
  HS02004799HS02004480       235.094       460.665         5.679         0.484         2.882
  HS02004792HS02004799       214.152       417.353         5.330         0.464         2.722
  HS02004788HS02004792       116.321       227.354         3.333         0.303         1.755
  HS02004785HS02004788        75.104       150.099         1.653         0.123         0.793
  HS02004777HS02004785        74.433       149.022         1.592         0.115         0.755
  HS02004480HS02004478       294.437       579.961         6.704         0.559         3.370
  HS02004479HS02004480        62.984       125.173         1.335         0.113         0.681
  HS02004862HS02004870        37.532        74.850         0.862         0.066         0.425
  HS02004848HS02004852        15.822        31.382         0.320         0.022         0.149
  HS02004856HS02004862        25.851        52.199         0.514         0.035         0.242
  HS02004852HS02004856        15.836        31.405         0.320         0.022         0.149
  HS02004802HS02004478       144.599       276.121         5.947         0.629         3.432
  HS02004478WS02006287       438.253       854.802        12.602         1.183         6.773
  HS02004817HS02004807       117.207       219.666         5.526         0.607         3.245
  HS02004807HS02004802       144.764       276.372         5.979         0.633         3.453
  YS02001759YS02001757       419.650       796.300         8.159         0.572         3.977
  YS02001762YS02001759       228.582       430.027         4.642         0.328         2.281
  YS02001765YS02001762       230.673       435.275         4.701         0.333         2.313
  YS02001770YS02001767       236.276       449.469         4.682         0.322         2.282
  YS02001774YS02001770       470.092       917.697         9.112         0.612         4.412
  YS02001779YS02001774       469.464       916.540         9.178         0.622         4.458
  YS02001649YS02001757       473.274       880.432         9.515         0.652         4.598
  YS02001767YS02001765       233.397       441.777         4.766         0.338         2.347
  YS02006561YS02001783      1272.910      2403.840        26.225         1.936        12.976
  YS02001783YS02001784      1272.792      2403.651        26.221         1.935        12.974
  YS02001784YS02001785      1280.167      2415.485        26.934         2.025        13.420
  YS02001788YS02001790      1280.787      2416.484        27.006         2.034        13.466
  YS02001790YS02001791      1281.810      2418.130        27.106         2.047        13.528
  YS02001791YS02001793      1281.658      2417.847        27.101         2.046        13.525
  YS02001910YS02001907       564.180      1065.367        12.713         0.937         6.415
  YS02001786YS02001788      1280.405      2415.895        26.962         2.028        13.438
  YS02001915YS02001910       564.287      1065.531        12.672         0.931         6.387
  YS02001918YS02001915       276.544       501.348         6.826         0.587         3.586
  YS02001923YS02001920       252.257       460.201         4.814         0.342         2.341
  YS02001926YS02001923       249.409       455.184         4.697         0.330         2.274
  YS02001929YS02001926       247.644       452.108         4.621         0.321         2.229
  YS02001920YS02001918       273.150       494.129         6.746         0.582         3.545
  YS02001629YS02163301        89.695       159.348         1.894         0.125         0.888
  YS02001619YS02001622       259.390       485.253         5.243         0.348         2.461
  YS02001622YS02001625       258.407       483.705         5.219         0.346         2.450
  YS02001625YS02001629        86.756       153.514         1.849         0.120         0.865
  YS02163301YS02001633        94.544       168.862         1.971         0.131         0.927
  YS02163601YS02164001       529.033       976.520        10.165         0.735         4.886
  YS02164001YS02001641       528.919       976.313        10.152         0.733         4.878
  YS02001641YS02001644       529.949       978.042        10.164         0.734         4.883
  YS02001647YS02001649       637.136      1190.674        12.781         0.887         6.128
  YS02006553YS02006556       791.908      1476.806        16.793         1.270         8.407
  YS02006556YS02006558       792.080      1477.122        16.759         1.265         8.384
  YSB6556YSB1171              36.522        72.734         0.718         0.059         0.359
  YS02001907YS02006553       791.923      1476.853        16.822         1.274         8.426
  YS02006558YS02006561      1272.884      2403.784        26.225         1.936        12.976
  YS02001633YS02163601       529.620       977.443        10.142         0.730         4.868
  YS02001644YS02001647       643.867      1203.551        12.880         0.895         6.173
  YS02001745YS02001748       354.046       679.926         6.988         0.437         3.357
  YS02001748YS02001751       353.364       678.770         6.996         0.440         3.365
  YS02001751YS02001754       352.451       677.270         6.982         0.440         3.360
  YS02001754YS02001757       353.280       678.515         7.148         0.462         3.468
  YS02001882YS02001884         5.136         9.174         0.097         0.007         0.048
  YS02001884YS02001887         7.782        14.059         0.147         0.011         0.072
  YS02001890YS02001895       615.284      1176.435        11.369         0.859         5.547
  YS02001895YS02001898       615.182      1176.342        11.364         0.858         5.544
  YS02001898YS02001901       615.112      1176.151        11.363         0.858         5.544
  YS02001901YS02001904       614.761      1175.666        11.366         0.859         5.547
  YS02001904YS02001907       615.319      1176.505        11.431         0.868         5.588
  YS02001887YS02001890       669.169      1284.212        12.354         0.936         6.031
  YS02001652YS02001649       314.449       596.599         6.248         0.452         2.936
  YS02001655YS02001652       315.245       597.877         6.269         0.453         2.946
  YS02001658YS02001655       315.070       597.596         6.191         0.442         2.894
  YS02001661YS02001658       315.902       598.930         6.212         0.444         2.903
  YS02001664YS02001661       325.423       614.132         6.437         0.459         3.006
  YSB1154YSB6556              36.101        72.069         0.671         0.053         0.330
  YSB1174YSB1171              24.945        50.010         0.488         0.039         0.242
  YSB1171HS02004479           62.905       125.026         1.341         0.114         0.684
  HS02004881HS02006253        73.242       148.647         1.537         0.110         0.749
  YS02001793JiankangQianchi      1281.608      2417.786        27.068         2.041        13.504
  YS02001757CaochengTiaoxuchi       669.294      1281.837        12.802         0.878         6.165
  WSF200WS02003060           951.756      1835.175        23.518         2.015        12.221
  1                         2446.926      4352.940       139.339        16.059        83.348
  CC-Pump-1                  205.960       397.747         3.871         0.266         1.859
  CC-Pump-2                   39.662        76.457         0.745         0.051         0.358
  JK-Pump-1                  366.621       696.305         7.575         0.565         3.759
  JK-Pump-2                  777.499      1488.721        15.728         1.162         7.765
  XR-Pump-1                  374.453       631.527        28.762         3.483        17.649
  XR-Pump-2                  338.692       574.306        25.341         3.056        15.512
  XR-Pump-3                  325.206       552.727        24.047         2.894        14.703
  XR-Pump-4                  325.206       552.727        24.047         2.894        14.703
  

  Analysis begun on:  Thu Jul 15 19:13:13 2021
  Analysis ended on:  Thu Jul 15 19:13:16 2021
  Total elapsed time: 00:00:03