
  EPA STORM WATER MANAGEMENT MODEL - VERSION 5.1 (Build 5.3.0.dev0)
  --------------------------------------------------------------

  WARNING 04: minimum elevation drop used for Conduit WS02004404WS02004405
  WARNING 03: negative offset ignored for Link YS02001904YS02001907
  
  *********************************************************
  NOTE: The summary statistics displayed in this report are
  based on results found at every computational time step,  
  not just on results from each reporting time step.
  *********************************************************
  
  ****************
  Analysis Options
  ****************
  Flow Units ............... LPS
  Process Models:
    Rainfall/Runoff ........ YES
    RDII ................... NO
    Snowmelt ............... NO
    Groundwater ............ NO
    Flow Routing ........... YES
    Ponding Allowed ........ NO
    Water Quality .......... YES
  Infiltration Method ...... HORTON
  Flow Routing Method ...... DYNWAVE
  Surcharge Method ......... EXTRAN
  Starting Date ............ 08/28/2015 08:00:00
  Ending Date .............. 08/28/2015 15:50:00
  Antecedent Dry Days ...... 8.0
  Report Time Step ......... 00:01:00
  Wet Time Step ............ 00:01:00
  Dry Time Step ............ 00:01:00
  Routing Time Step ........ 5.00 sec
  Variable Time Step ....... YES
  Maximum Trials ........... 8
  Number of Threads ........ 4
  Head Tolerance ........... 0.001500 m
  
  
  **************************        Volume         Depth
  Runoff Quantity Continuity     hectare-m            mm
  **************************     ---------       -------
  Total Precipitation ......         7.641        16.729
  Evaporation Loss .........         0.000         0.000
  Infiltration Loss ........         1.184         2.592
  Surface Runoff ...........         5.481        12.000
  Final Storage ............         0.977         2.139
  Continuity Error (%) .....        -0.016
  
  
  **************************           COD            SS            TN            TP         NH4-N
  Runoff Quality Continuity             kg            kg            kg            kg            kg
  **************************    ----------    ----------    ----------    ----------    ----------
  Initial Buildup ..........     41378.656     70582.865      1804.177       168.684      1032.807
  Surface Buildup ..........        30.344        63.217         2.449         0.220         1.402
  Wet Deposition ...........         0.000         0.000         0.000         0.000         0.000
  Sweeping Removal .........         0.000         0.000         0.000         0.000         0.000
  Infiltration Loss ........       127.934       247.015         2.452         0.174         1.174
  BMP Removal ..............         0.000         0.000         0.000         0.000         0.000
  Surface Runoff ...........      5553.100     10632.121       107.101         7.411        51.076
  Remaining Buildup ........     35725.917     59762.998      1697.031       161.316       981.940
  Continuity Error (%) .....         0.005         0.006         0.002         0.002         0.002
  
  
  **************************        Volume        Volume
  Flow Routing Continuity        hectare-m      10^6 ltr
  **************************     ---------     ---------
  Dry Weather Inflow .......         0.616         6.165
  Wet Weather Inflow .......         5.479        54.795
  Groundwater Inflow .......         0.000         0.000
  RDII Inflow ..............         0.000         0.000
  External Inflow ..........         0.102         1.024
  External Outflow .........         2.024        20.238
  Flooding Loss ............         3.724        37.240
  Evaporation Loss .........         0.000         0.000
  Exfiltration Loss ........         0.000         0.000
  Initial Stored Volume ....         0.076         0.761
  Final Stored Volume ......         0.638         6.377
  Continuity Error (%) .....        -1.769
  
  
  **************************           COD            SS            TN            TP         NH4-N
  Quality Routing Continuity            kg            kg            kg            kg            kg
  **************************    ----------    ----------    ----------    ----------    ----------
  Dry Weather Inflow .......      1541.201      2465.922       147.955        18.494        92.472
  Wet Weather Inflow .......      5552.426     10631.014       107.086         7.410        51.069
  Groundwater Inflow .......         0.000         0.000         0.000         0.000         0.000
  RDII Inflow ..............         0.000         0.000         0.000         0.000         0.000
  External Inflow ..........       183.418       293.469        17.608         2.201        11.005
  External Outflow .........      2511.666      4480.140       140.341        16.112        83.786
  Flooding Loss ............      4049.164      7649.797       103.464         9.009        54.294
  Exfiltration Loss ........         0.000         0.000         0.000         0.000         0.000
  Mass Reacted .............         0.000         0.000         0.000         0.000         0.000
  Initial Stored Mass ......         0.000         0.000         0.000         0.000         0.000
  Final Stored Mass ........       611.218      1087.333        25.393         2.668        14.586
  Continuity Error (%) .....         1.443         1.293         1.265         1.128         1.216
  
  
  *************************
  Highest Continuity Errors
  *************************
  Node HS02004842 (10.96%)
  Node JK-storage (-8.98%)
  Node YS02001884 (8.51%)
  Node HS02004817 (2.13%)
  Node YSB1171 (1.97%)
  
  
  ***************************
  Time-Step Critical Elements
  ***************************
  Link WS02006252WS02006251 (51.98%)
  Link WS02006280WS02006229 (15.15%)
  Link WS02006238WS02006235 (10.59%)
  Link YS02001793JiankangQianchi (4.96%)
  Link YS02006556YS02006558 (2.50%)
  
  
  ********************************
  Highest Flow Instability Indexes
  ********************************
  Link WS02006113WS02006111 (45)
  Link WS02006111WS02006112 (26)
  Link YS02001619YS02001622 (21)
  Link YS02001774YS02001770 (21)
  Link YS02163601YS02164001 (21)
  
  
  *************************
  Routing Time Step Summary
  *************************
  Minimum Time Step           :     0.22 sec
  Average Time Step           :     1.42 sec
  Maximum Time Step           :     5.00 sec
  Percent in Steady State     :    -0.00
  Average Iterations per Step :     3.46
  Percent Not Converging      :    10.93
  
  
  ***************************
  Subcatchment Runoff Summary
  ***************************
  
  ------------------------------------------------------------------------------------------------------------------------------
                            Total      Total      Total      Total     Imperv       Perv      Total       Total     Peak  Runoff
                           Precip      Runon       Evap      Infil     Runoff     Runoff     Runoff      Runoff   Runoff   Coeff
  Subcatchment                 mm         mm         mm         mm         mm         mm         mm    10^6 ltr      LPS
  ------------------------------------------------------------------------------------------------------------------------------
  sub0                      16.73       0.00       0.00       0.71      15.51       0.47      15.98        0.01     3.87   0.955
  sub1                      16.73       0.00       0.00       1.18      14.80       0.66      15.46        0.10    26.74   0.924
  sub2                      16.73       0.00       0.00       4.79      10.46       1.40      11.85        0.11    25.81   0.708
  sub3                      16.73       0.00       0.00       5.01      10.42       1.18      11.60        0.26    56.97   0.693
  sub4                      16.73       0.00       0.00       1.28      14.64       0.56      15.20        0.32    66.74   0.909
  sub5                      16.73       0.00       0.00       0.73      15.46       0.44      15.91        0.18    46.91   0.951
  sub7                      16.73       0.00       0.00       0.93      15.16       0.58      15.74        0.05    14.85   0.941
  sub8                      16.73       0.00       0.00       0.94      15.15       0.57      15.72        0.10    27.42   0.940
  sub9                      16.73       0.00       0.00       0.94      15.15       0.57      15.72        0.08    20.52   0.940
  sub10                     16.73       0.00       0.00       0.83      15.30       0.50      15.81        0.17    46.04   0.945
  sub11                     16.73       0.00       0.00       0.83      15.32       0.51      15.83        0.18    50.62   0.947
  sub12                     16.73       0.00       0.00       1.34      14.51       0.83      15.34        0.13    39.22   0.917
  sub14                     16.73       0.00       0.00       0.94      15.15       0.57      15.72        0.15    40.40   0.939
  sub15                     16.73       0.00       0.00       3.54      11.65       1.48      13.13        0.23    57.86   0.785
  sub16                     16.73       0.00       0.00       3.72      11.17       1.80      12.97        0.14    37.34   0.776
  sub17                     16.73       0.00       0.00       3.62      11.33       1.73      13.07        0.11    30.57   0.781
  sub22                     16.73       0.00       0.00       5.27       9.49       1.92      11.42        0.72   183.11   0.683
  sub23                     16.73       0.00       0.00       4.37      10.50       1.82      12.32        0.59   153.57   0.736
  sub60                     16.73       0.00       0.00       1.74      12.78       0.27      13.05        3.96   446.24   0.780
  sub61                     16.73       0.00       0.00       2.46      12.72       0.38      13.11        4.04   542.53   0.784
  sub62                     16.73       0.00       0.00       1.06      13.91       0.27      14.19        4.36   558.01   0.848
  sub63                     16.73       0.00       0.00       4.39      11.06       0.46      11.52        3.49   496.40   0.689
  sub64                     16.73       0.00       0.00       2.23      12.28       0.28      12.56        3.82   424.95   0.751
  sub65                     16.73       0.00       0.00       1.91      12.51       0.27      12.77        3.93   431.32   0.764
  sub66                     16.73       0.00       0.00       4.54      10.46       0.31      10.78        3.31   388.44   0.644
  sub67                     16.73       0.00       0.00       1.01      14.45       0.32      14.78        4.56   675.76   0.883
  sub68                     16.73       0.00       0.00       1.95      13.33       0.39      13.71        4.22   589.75   0.820
  sub69                     16.73       0.00       0.00       2.00      13.62       0.51      14.12        3.30   542.07   0.844
  sub70                     16.73      14.42       0.00       8.47      19.01       2.12      21.13        4.84   534.50   0.678
  sub71                     16.73       0.00       0.00       1.08      13.65       0.25      13.90        3.28   394.68   0.831
  sub72                     16.73       0.00       0.00       1.02      11.50       0.15      11.65        2.37   206.66   0.697
  1                         16.73      20.58       0.00       1.37      22.38       7.20      29.58        6.95   612.18   0.793
  2                         16.73       0.00       0.00       3.02       4.04       3.18       7.22        2.89   331.58   0.431
  
  
  ****************************
  Subcatchment Washoff Summary
  ****************************
  
  ------------------------------------------------------------------------------------------
                                 COD            SS            TN            TP         NH4-N
  Subcatchment                    kg            kg            kg            kg            kg
  ------------------------------------------------------------------------------------------
  sub0                         3.641         7.161         0.064         0.005         0.031
  sub1                        15.670        31.767         0.296         0.021         0.143
  sub2                        10.304        20.454         0.214         0.015         0.099
  sub3                        25.293        49.815         0.517         0.036         0.240
  sub4                        36.168        74.260         0.714         0.044         0.344
  sub5                        35.763        71.366         0.649         0.050         0.316
  sub7                         7.894        16.212         0.150         0.010         0.073
  sub8                        11.755        24.726         0.234         0.014         0.113
  sub9                        10.113        20.966         0.196         0.013         0.095
  sub10                       29.347        59.341         0.545         0.040         0.265
  sub11                       28.395        58.052         0.536         0.037         0.260
  sub12                       24.463        49.072         0.450         0.034         0.218
  sub14                       21.697        44.543         0.414         0.028         0.200
  sub15                       29.696        58.821         0.572         0.042         0.270
  sub16                       19.246        38.050         0.367         0.028         0.174
  sub17                       17.687        34.653         0.330         0.026         0.156
  sub22                       95.915       186.896         1.820         0.139         0.857
  sub23                       54.382       109.539         1.141         0.076         0.527
  sub60                      353.947       679.509         6.988         0.437         3.357
  sub61                      439.695       840.113         8.188         0.570         3.952
  sub62                      449.790       873.119         8.744         0.564         4.209
  sub63                      328.186       618.356         6.505         0.463         3.037
  sub64                      450.924       835.563         8.299         0.611         3.976
  sub65                      460.537       856.688         8.527         0.617         4.090
  sub66                      259.427       485.147         5.248         0.348         2.463
  sub67                      667.181      1281.068        12.075         0.900         5.853
  sub68                      479.473       924.467         9.153         0.628         4.389
  sub69                      429.286       835.450         8.068         0.576         3.873
  sub70                      758.301      1478.311        15.194         1.074         7.173
  sub71                      296.268       580.620         6.027         0.356         2.890
  sub72                      247.759       452.374         4.612         0.320         2.223
  1                          576.917      1130.968        11.723         0.829         5.484
  2                           65.566       118.435         1.802         0.109         0.773
  ------------------------------------------------------------------------------------------
  System                    6740.687     12945.882       130.363         9.060        62.122
  
  
  ******************
  Node Depth Summary
  ******************
  
  ---------------------------------------------------------------------------------
                                 Average  Maximum  Maximum  Time of Max    Reported
                                   Depth    Depth      HGL   Occurrence   Max Depth
  Node                 Type       Meters   Meters   Meters  days hr:min      Meters
  ---------------------------------------------------------------------------------
  WS02001211           JUNCTION     0.77     0.85     5.69     0  02:04        0.85
  WS02001212           JUNCTION     0.48     0.58     5.64     0  02:04        0.58
  WS02001213           JUNCTION     0.72     0.86     5.62     0  02:03        0.86
  WS02003069           JUNCTION     0.51     0.72     5.31     0  02:03        0.72
  WS02003072           JUNCTION     0.57     0.76     5.14     0  02:04        0.76
  WS02003073           JUNCTION     0.35     0.48     4.55     0  02:04        0.48
  WS02003060           JUNCTION     0.45     0.64     5.57     0  02:03        0.64
  WS02003066           JUNCTION     0.24     0.39     5.94     0  01:58        0.39
  WS02003059           JUNCTION     0.77     0.91     5.60     0  02:03        0.91
  WS02003067           JUNCTION     0.58     0.83     6.15     0  01:57        0.83
  WS02004401           JUNCTION     0.73     1.31     7.31     0  01:55        1.25
  WS02004402           JUNCTION     0.75     1.30     7.26     0  01:55        1.23
  WS02004403           JUNCTION     0.77     1.27     7.20     0  01:55        1.20
  WS02004404           JUNCTION     0.84     1.31     7.16     0  01:55        1.24
  WS02004406           JUNCTION     0.84     1.20     7.03     0  01:55        1.17
  WS02004409           JUNCTION     0.53     0.98     6.75     0  01:57        0.98
  WS02004410           JUNCTION     0.54     0.96     6.68     0  01:57        0.96
  WS02004411           JUNCTION     0.56     0.94     6.62     0  01:58        0.94
  WS02004412           JUNCTION     0.57     0.91     6.55     0  01:57        0.91
  WS02004413           JUNCTION     0.71     1.03     6.50     0  01:57        1.03
  WS02004405           JUNCTION     0.83     1.28     7.13     0  01:55        1.22
  WS02006109           JUNCTION     0.83     1.76     8.37     0  01:55        1.75
  WS02006110           JUNCTION     0.80     1.54     8.13     0  01:55        1.52
  WS02006111           JUNCTION     0.27     1.04     7.74     0  01:55        0.94
  WS02006112           JUNCTION     0.91     1.65     7.54     0  01:55        1.60
  WS02006113           JUNCTION     0.38     1.04     7.93     0  01:55        0.99
  WS02006115           JUNCTION     0.63     1.31     7.45     0  01:55        1.25
  WS02006116           JUNCTION     0.70     1.35     7.39     0  01:55        1.28
  WS02006230           JUNCTION     0.84     1.98     8.72     0  01:56        1.98
  WS02006231           JUNCTION     0.59     1.61     8.73     0  01:56        1.61
  WS02006232           JUNCTION     0.73     1.70     8.74     0  01:56        1.70
  WS02006234           JUNCTION     0.66     1.59     8.75     0  01:56        1.59
  WS02006235           JUNCTION     0.69     1.60     8.76     0  01:56        1.59
  WS02006238           JUNCTION     0.72     1.61     8.76     0  01:56        1.60
  WS02006240           JUNCTION     0.61     1.44     8.74     0  01:56        1.44
  WS02006242           JUNCTION     0.66     1.46     8.73     0  01:56        1.45
  WS02006243           JUNCTION     0.54     1.30     8.72     0  01:56        1.29
  WS02006245           JUNCTION     0.51     1.22     8.71     0  01:56        1.22
  WS02006247           JUNCTION     0.52     1.20     8.70     0  01:53        1.19
  WS02006248           JUNCTION     0.46     1.10     8.69     0  01:53        1.10
  WS02006249           JUNCTION     0.48     1.09     8.69     0  01:53        1.09
  WS02006239           JUNCTION     0.67     1.54     8.75     0  01:56        1.53
  WS02006251           JUNCTION     0.46     1.34     9.01     0  01:54        1.16
  WS02006252           JUNCTION     0.29     0.79     9.03     0  01:54        0.70
  WS02006253           JUNCTION     0.49     1.52     9.17     0  01:54        1.20
  WS02006256           JUNCTION     1.75     2.35     9.28     0  00:00        2.35
  WS02004138           JUNCTION     0.19     0.20     7.45     0  00:00        0.19
  WS02004139           JUNCTION     0.72     0.79     5.70     0  02:05        0.79
  WS02004407           JUNCTION     0.24     0.40     6.72     0  01:56        0.40
  WS02006228           JUNCTION     0.85     1.94     8.59     0  01:55        1.93
  WS02006229           JUNCTION     0.83     2.02     8.71     0  01:56        2.01
  WS02006280           JUNCTION     0.08     0.34     8.61     0  01:55        0.32
  WS02006284           JUNCTION     0.38     0.66     9.06     0  01:54        0.66
  WS02006287           JUNCTION     0.11     0.40     9.36     0  01:54        0.40
  WSF200               JUNCTION     0.23     0.44     5.67     0  01:58        0.44
  HS02004901           JUNCTION     0.14     0.38    10.21     0  01:53        0.38
  HS02004881           JUNCTION     0.01     0.06     9.08     0  01:54        0.05
  HS02004876           JUNCTION     0.05     0.17     9.20     0  01:54        0.17
  HS02004870           JUNCTION     0.02     0.10     9.38     0  01:54        0.10
  HS02004862           JUNCTION     0.02     0.11     9.50     0  01:55        0.11
  HS02004856           JUNCTION     0.08     0.15     9.58     0  01:54        0.15
  HS02004852           JUNCTION     0.01     0.08     9.59     0  01:55        0.08
  HS02004848           JUNCTION     0.01     0.07     9.67     0  01:54        0.07
  HS02004842           JUNCTION     0.34     0.40     9.67     0  01:54        0.40
  HS02004837           JUNCTION     0.03     0.09     9.67     0  01:54        0.09
  HS02004830           JUNCTION     0.04     0.11     9.58     0  01:55        0.11
  HS02004824           JUNCTION     0.03     0.15     9.55     0  01:54        0.15
  HS02004817           JUNCTION     0.45     0.71     9.56     0  01:54        0.71
  HS02004807           JUNCTION     0.14     0.38     9.55     0  01:55        0.38
  HS02004802           JUNCTION     0.17     0.41     9.54     0  01:55        0.41
  HS02004799           JUNCTION     0.14     0.48     9.69     0  01:53        0.48
  HS02004792           JUNCTION     0.04     0.22     9.75     0  01:53        0.22
  HS02004788           JUNCTION     0.03     0.16    10.06     0  01:54        0.16
  HS02004785           JUNCTION     0.06     0.25    10.15     0  01:53        0.25
  HS02004777           JUNCTION     0.16     0.40    10.20     0  01:53        0.40
  HS02004770           JUNCTION     0.13     0.37    10.21     0  01:53        0.37
  HS02004480           JUNCTION     0.09     0.39     9.64     0  01:53        0.39
  HS02004479           JUNCTION     0.13     0.43     9.64     0  01:53        0.43
  HS02004478           JUNCTION     0.07     0.29     9.52     0  01:54        0.29
  YS02001745           JUNCTION     0.78     0.95     8.47     0  02:39        0.95
  YS02001748           JUNCTION     1.18     1.39     8.47     0  03:05        1.38
  YS02001751           JUNCTION     1.36     1.58     8.46     0  03:05        1.57
  YS02001754           JUNCTION     1.61     1.84     8.45     0  03:05        1.84
  YS02001762           JUNCTION     1.81     2.04     8.44     0  03:06        2.03
  YS02001765           JUNCTION     1.76     1.99     8.44     0  03:05        1.98
  YS02001767           JUNCTION     1.73     1.94     8.43     0  03:05        1.94
  YS02001770           JUNCTION     1.72     1.93     8.42     0  02:37        1.93
  YS02001774           JUNCTION     1.79     1.99     8.41     0  03:05        1.98
  YS02001779           JUNCTION     1.53     1.68     8.37     0  01:47        1.68
  YS02001882           JUNCTION     0.63     1.67     8.39     0  01:50        1.63
  YS02001884           JUNCTION     0.73     1.77     8.38     0  01:50        1.73
  YS02001759           JUNCTION     1.85     2.08     8.44     0  03:05        2.08
  YS02001887           JUNCTION     0.81     1.82     8.36     0  01:50        1.81
  YS02001890           JUNCTION     0.84     1.81     8.32     0  01:50        1.81
  YS02001898           JUNCTION     0.60     1.57     8.30     0  01:51        1.56
  YS02001901           JUNCTION     0.72     1.68     8.29     0  01:51        1.67
  YS02001904           JUNCTION     0.70     1.64     8.27     0  01:51        1.63
  YS02001907           JUNCTION     1.03     1.96     8.25     0  01:51        1.96
  YS02001910           JUNCTION     0.82     1.94     8.44     0  01:51        1.79
  YS02001915           JUNCTION     0.62     1.84     8.56     0  01:51        1.62
  YS02001918           JUNCTION     0.36     1.70     8.77     0  01:51        1.35
  YS02001619           JUNCTION     1.32     1.57     8.50     0  01:45        1.48
  YS02001629           JUNCTION     1.67     1.85     8.40     0  06:12        1.84
  YS02001641           JUNCTION     1.77     1.93     8.37     0  01:49        1.93
  YS02001644           JUNCTION     1.77     1.92     8.35     0  01:48        1.92
  YS02001652           JUNCTION     1.62     1.90     8.50     0  01:58        1.90
  YS02001655           JUNCTION     1.39     1.71     8.56     0  01:52        1.70
  YS02001920           JUNCTION     0.47     1.89     8.90     0  01:51        1.45
  YS02001923           JUNCTION     0.30     1.71     8.97     0  01:51        1.24
  YS02001926           JUNCTION     0.34     1.90     9.35     0  01:51        1.13
  YS02001929           JUNCTION     0.21     0.97     8.66     0  01:52        0.97
  YS02001658           JUNCTION     1.12     1.49     8.63     0  01:52        1.43
  YS02001661           JUNCTION     0.88     1.39     8.80     0  01:57        1.10
  YS02001664           JUNCTION     0.40     0.56     8.49     0  01:52        0.54
  YS02001622           JUNCTION     1.34     1.57     8.47     0  01:45        1.50
  YS02001633           JUNCTION     1.76     1.95     8.40     0  06:12        1.94
  YS02001649           JUNCTION     1.82     2.04     8.43     0  03:04        2.04
  YS02001757           JUNCTION     1.94     2.18     8.44     0  03:05        2.18
  YS02001895           JUNCTION     0.60     1.57     8.31     0  01:51        1.56
  YS02001625           JUNCTION     1.62     1.78     8.38     0  01:45        1.78
  YS02163301           JUNCTION     1.70     1.88     8.40     0  02:16        1.88
  YS02163601           JUNCTION     1.81     1.99     8.39     0  06:12        1.98
  YS02164001           JUNCTION     1.75     1.92     8.38     0  06:12        1.91
  YS02001647           JUNCTION     1.60     1.79     8.40     0  03:05        1.78
  YSB1154              JUNCTION     0.27     0.58     9.64     0  01:53        0.58
  YSB6556              JUNCTION     0.16     0.47     9.64     0  01:53        0.47
  YSB1174              JUNCTION     0.22     0.53     9.64     0  01:53        0.53
  YSB1171              JUNCTION     0.42     0.74     9.64     0  01:53        0.74
  YS02006553           JUNCTION     1.03     1.97     8.25     0  02:07        1.97
  YS02006561           JUNCTION     0.37     1.10     7.76     0  01:56        1.09
  YS02006556           JUNCTION     0.99     1.93     8.25     0  02:04        1.93
  YS02006558           JUNCTION     1.04     1.98     8.25     0  02:12        1.97
  YS02001783           JUNCTION     0.60     1.63     7.77     0  01:44        1.47
  YS02001784           JUNCTION     0.61     1.70     7.77     0  01:44        1.42
  YS02001786           JUNCTION     0.55     1.52     7.55     0  01:44        1.26
  YS02001788           JUNCTION     0.47     1.45     7.43     0  01:44        1.12
  YS02001790           JUNCTION     0.59     1.96     7.60     0  01:44        1.30
  YS02001791           JUNCTION     0.55     1.82     7.29     0  01:44        1.27
  YS02001793           JUNCTION     0.74     2.53     7.36     0  01:42        1.80
  WSC                  OUTFALL      0.35     0.48     1.15     0  02:05        0.48
  JK-storage           STORAGE      2.80     5.80     6.60     0  01:44        5.80
  CC-storage           STORAGE      1.19     1.44     8.44     0  03:07        1.44
  XR-storage           STORAGE      7.06     7.72     5.72     0  02:06        7.72
  
  
  *******************
  Node Inflow Summary
  *******************
  
  -------------------------------------------------------------------------------------------------
                                  Maximum  Maximum                  Lateral       Total        Flow
                                  Lateral    Total  Time of Max      Inflow      Inflow     Balance
                                   Inflow   Inflow   Occurrence      Volume      Volume       Error
  Node                 Type           LPS      LPS  days hr:min    10^6 ltr    10^6 ltr     Percent
  -------------------------------------------------------------------------------------------------
  WS02001211           JUNCTION      7.35   389.58     0  05:48       0.207        10.3       0.388
  WS02001212           JUNCTION      0.00   391.68     0  05:48           0        10.2       0.229
  WS02001213           JUNCTION      0.00   393.66     0  05:47           0        10.2       0.268
  WS02003069           JUNCTION      0.32  1339.00     0  02:03     0.00902        20.3       0.141
  WS02003072           JUNCTION      0.00  1338.97     0  02:04           0        20.3       0.176
  WS02003073           JUNCTION      1.82  1341.06     0  02:04      0.0514        20.3       0.201
  WS02003060           JUNCTION     16.53  1338.37     0  02:02       0.466        20.3       0.133
  WS02003066           JUNCTION      0.00   954.53     0  01:58           0        9.72       0.031
  WS02003059           JUNCTION      0.00   396.72     0  05:47           0        10.2       0.373
  WS02003067           JUNCTION      0.00   953.85     0  01:58           0        9.73       0.068
  WS02004401           JUNCTION      0.00   968.23     0  01:56           0        9.88       0.135
  WS02004402           JUNCTION      0.00   968.53     0  01:56           0        9.87       0.136
  WS02004403           JUNCTION      0.00   968.62     0  01:56           0        9.85       0.128
  WS02004404           JUNCTION      0.16   969.44     0  01:56     0.00457        9.85       0.101
  WS02004406           JUNCTION      0.00   970.80     0  01:56           0        9.82       0.251
  WS02004409           JUNCTION      0.00   968.68     0  01:56           0        9.79       0.086
  WS02004410           JUNCTION      0.00   956.91     0  01:57           0        9.79       0.108
  WS02004411           JUNCTION      0.00   951.75     0  01:58           0        9.78       0.119
  WS02004412           JUNCTION      0.00   953.57     0  01:58           0        9.76       0.139
  WS02004413           JUNCTION      0.00   953.69     0  01:58           0        9.75       0.225
  WS02004405           JUNCTION      0.04   971.09     0  01:56     0.00107        9.84       0.157
  WS02006109           JUNCTION      1.23   938.79     0  01:56      0.0347        9.83       0.097
  WS02006110           JUNCTION      0.00   938.67     0  01:56           0        9.82       0.101
  WS02006111           JUNCTION      0.00   937.79     0  01:56           0        9.81       0.007
  WS02006112           JUNCTION     30.57   966.47     0  01:56       0.112        9.92       0.185
  WS02006113           JUNCTION      0.00   938.50     0  01:56           0        9.81       0.037
  WS02006115           JUNCTION      0.00   966.91     0  01:56           0         9.9       0.101
  WS02006116           JUNCTION      0.00   967.78     0  01:56           0        9.89       0.110
  WS02006230           JUNCTION     10.28   531.92     0  05:30        0.29        6.73       0.114
  WS02006231           JUNCTION      0.00   521.70     0  05:30           0        6.43      -0.024
  WS02006232           JUNCTION      0.00   521.92     0  05:20           0        6.43       0.106
  WS02006234           JUNCTION      0.00   522.01     0  05:30           0        6.43      -0.039
  WS02006235           JUNCTION      0.00   522.60     0  05:26           0         6.5       0.074
  WS02006238           JUNCTION      0.00   384.18     0  06:11           0        3.11      -0.045
  WS02006240           JUNCTION      0.00   384.43     0  06:10           0        3.05       0.023
  WS02006242           JUNCTION      0.00   384.64     0  06:10           0        3.02       0.042
  WS02006243           JUNCTION      0.00   384.83     0  06:10           0           3      -0.173
  WS02006245           JUNCTION      0.00   385.02     0  06:10           0        2.99       0.138
  WS02006247           JUNCTION      0.00   386.10     0  06:03           0        2.99       0.026
  WS02006248           JUNCTION      0.00   390.34     0  06:03           0        2.99      -0.068
  WS02006249           JUNCTION      0.00   450.83     0  02:50           0        3.27       0.083
  WS02006239           JUNCTION      0.00   384.39     0  06:11           0        3.08      -0.100
  WS02006251           JUNCTION      0.08   449.77     0  02:50     0.00217         3.3      -0.028
  WS02006252           JUNCTION      0.00   400.00     0  05:20           0        2.64       0.008
  WS02006253           JUNCTION      3.87   193.14     0  01:54      0.0129       0.652      -0.088
  WS02006256           JUNCTION      0.00   983.00     0  00:00           0        11.5      -0.005
  WS02004138           JUNCTION      0.00   380.00     0  00:00           0        10.1       0.064
  WS02004139           JUNCTION      0.32   396.51     0  00:00     0.00905        10.1       0.443
  WS02004407           JUNCTION      0.00   971.46     0  01:56           0         9.8       0.035
  WS02006228           JUNCTION      0.00   937.40     0  01:56           0         9.8       0.076
  WS02006229           JUNCTION      0.00   991.31     0  01:55           0        9.82       0.091
  WS02006280           JUNCTION      0.00   736.05     0  01:54           0        3.11       0.015
  WS02006284           JUNCTION      0.10   735.80     0  01:54      0.0027        3.11       0.018
  WS02006287           JUNCTION      0.00   735.61     0  01:54           0        3.11       0.023
  WSF200               JUNCTION      0.00   955.05     0  01:58           0        9.72       0.024
  HS02004901           JUNCTION     37.34    37.34     0  01:51       0.136       0.136       1.311
  HS02004881           JUNCTION     14.85   153.29     0  01:54       0.053       0.601       0.074
  HS02004876           JUNCTION     26.74   139.06     0  01:54       0.103       0.549       0.099
  HS02004870           JUNCTION     27.42   112.65     0  01:54         0.1       0.446       0.025
  HS02004862           JUNCTION     26.01    86.18     0  01:54       0.116       0.346       0.050
  HS02004856           JUNCTION     20.52    60.23     0  01:54      0.0756       0.231       0.629
  HS02004852           JUNCTION      0.00    40.37     0  01:54           0       0.155       0.036
  HS02004848           JUNCTION     56.97    56.97     0  01:56       0.261       0.261       0.019
  HS02004842           JUNCTION      0.00    18.18     0  02:06           0       0.119      12.304
  HS02004837           JUNCTION     52.39    67.87     0  01:54       0.353       0.459       0.178
  HS02004830           JUNCTION      0.15    67.98     0  01:54     0.00423       0.449       0.275
  HS02004824           JUNCTION     66.79   134.68     0  01:56       0.319       0.767       0.071
  HS02004817           JUNCTION      0.60   136.93     0  01:57      0.0169       0.783       2.174
  HS02004807           JUNCTION     50.62   184.13     0  01:55       0.184       0.952       0.461
  HS02004802           JUNCTION      0.00   183.90     0  01:56           0        0.95       0.414
  HS02004799           JUNCTION     40.40   470.74     0  01:53        0.15        1.87       0.160
  HS02004792           JUNCTION    183.39   430.97     0  01:53       0.729        1.72       0.024
  HS02004788           JUNCTION     59.53   248.79     0  01:53       0.273       0.991       0.040
  HS02004785           JUNCTION      0.15   189.55     0  01:53     0.00423        0.72       0.070
  HS02004777           JUNCTION      0.03   189.70     0  01:52    0.000846        0.72       0.728
  HS02004770           JUNCTION    153.57   190.37     0  01:52       0.587       0.722       0.429
  HS02004480           JUNCTION      0.00   554.33     0  01:53           0        2.18       0.044
  HS02004479           JUNCTION      0.00    83.75     0  01:53           0       0.323       0.229
  HS02004478           JUNCTION      0.00   735.56     0  01:54           0        3.11       0.010
  YS02001745           JUNCTION    446.25   446.25     0  02:16        3.95        3.95       0.291
  YS02001748           JUNCTION      0.04   449.81     0  02:16     0.00127        3.94       0.575
  YS02001751           JUNCTION      0.01   449.88     0  02:16     0.00031        3.92       0.616
  YS02001754           JUNCTION      0.26   450.64     0  02:16     0.00733        3.91       0.629
  YS02001762           JUNCTION      0.00   432.02     0  01:54           0        2.45       0.866
  YS02001765           JUNCTION      0.00   432.11     0  01:55           0        2.45       1.000
  YS02001767           JUNCTION      0.54   432.82     0  01:55      0.0151        2.47       1.460
  YS02001770           JUNCTION    558.16   716.27     0  02:40        4.36        5.59       0.563
  YS02001774           JUNCTION      0.00   716.27     0  02:40           0        4.32       0.572
  YS02001779           JUNCTION      0.01   716.27     0  02:40    0.000141        4.29       0.362
  YS02001882           JUNCTION      0.00    56.59     0  01:48           0      0.0286       7.539
  YS02001884           JUNCTION      0.00    65.66     0  01:46           0      0.0665       9.300
  YS02001759           JUNCTION    542.57   878.91     0  01:56        4.04        5.24       0.438
  YS02001887           JUNCTION    676.21   677.17     0  02:11        4.57         4.6       0.173
  YS02001890           JUNCTION      0.00   677.57     0  02:12           0        4.56       0.192
  YS02001898           JUNCTION      0.00   521.67     0  01:51           0        4.27       0.056
  YS02001901           JUNCTION      0.00   522.22     0  01:51           0        4.27       0.153
  YS02001904           JUNCTION      0.00   521.35     0  01:51           0        4.27       0.129
  YS02001907           JUNCTION      0.00  1166.91     0  01:52           0        9.99       0.228
  YS02001910           JUNCTION      0.00   652.78     0  01:52           0        5.74       0.195
  YS02001915           JUNCTION    394.70   652.43     0  01:52        3.28        5.79       0.097
  YS02001918           JUNCTION      0.00   371.39     0  01:52           0        2.54       0.051
  YS02001619           JUNCTION    388.44   388.44     0  02:16         3.3         3.3       0.369
  YS02001629           JUNCTION      0.00   221.42     0  01:48           0        1.43       2.063
  YS02001641           JUNCTION      0.00   455.84     0  01:48           0        5.09       0.413
  YS02001644           JUNCTION    424.99  1552.53     0  02:39        3.82        14.8       0.180
  YS02001652           JUNCTION      0.00   519.29     0  02:09           0        3.43       0.679
  YS02001655           JUNCTION      0.15   518.46     0  02:09     0.00434        3.45       0.733
  YS02001920           JUNCTION      2.87   371.02     0  01:52      0.0809        2.52       0.110
  YS02001923           JUNCTION      0.04   310.81     0  01:53     0.00106        2.42       0.040
  YS02001926           JUNCTION      0.05   324.30     0  01:50     0.00147        2.39       0.133
  YS02001929           JUNCTION    206.66   206.66     0  03:01        2.37        2.38       0.028
  YS02001658           JUNCTION      0.00   516.82     0  02:09           0        3.47       0.699
  YS02001661           JUNCTION      0.00   756.28     0  01:52           0        3.67       0.178
  YS02001664           JUNCTION    496.40   496.40     0  02:16        3.49        3.67       0.162
  YS02001622           JUNCTION      0.00   388.97     0  02:16           0        3.29       0.978
  YS02001633           JUNCTION    431.52   457.93     0  01:48        3.93        5.24       0.614
  YS02001649           JUNCTION      0.00  1001.71     0  01:49           0        8.08       0.456
  YS02001757           JUNCTION      0.00  2146.43     0  01:55           0        10.3       0.890
  YS02001895           JUNCTION      0.00   521.59     0  01:51           0        4.27       0.118
  YS02001625           JUNCTION      0.00   435.74     0  02:16           0        3.34       1.180
  YS02163301           JUNCTION      0.00   221.32     0  01:47           0        1.42       1.710
  YS02163601           JUNCTION      0.11   457.45     0  01:48      0.0031        5.11       0.591
  YS02164001           JUNCTION      0.00   456.87     0  01:48           0        5.09       0.398
  YS02001647           JUNCTION      0.00   787.66     0  02:41           0        7.18       0.399
  YSB1154              JUNCTION     46.91    46.91     0  01:52        0.18       0.181       0.806
  YSB6556              JUNCTION      0.00    46.63     0  01:53           0       0.182       0.696
  YSB1174              JUNCTION     39.22    39.22     0  01:50       0.134       0.134       0.962
  YSB1171              JUNCTION      0.00    84.01     0  01:52           0       0.322       2.011
  YS02006553           JUNCTION      0.00   717.87     0  03:36           0        7.29       0.201
  YS02006561           JUNCTION      0.00   982.54     0  02:16           0        11.5       0.002
  YS02006556           JUNCTION      0.00   718.56     0  03:36           0         7.3       0.133
  YS02006558           JUNCTION    590.63   983.70     0  02:11        4.24        11.5       0.043
  YS02001783           JUNCTION      0.00   982.45     0  02:13           0        11.5       0.014
  YS02001784           JUNCTION      1.06   983.88     0  02:13      0.0299        11.5       0.028
  YS02001786           JUNCTION      0.06   983.44     0  02:15     0.00159        11.5       0.030
  YS02001788           JUNCTION      0.07   983.47     0  02:15       0.002        11.5       0.017
  YS02001790           JUNCTION      0.15   983.86     0  02:15     0.00437        11.5       0.011
  YS02001791           JUNCTION      0.00   983.65     0  02:15           0        11.5      -0.002
  YS02001793           JUNCTION      0.00   984.35     0  02:12           0        11.5      -0.039
  WSC                  OUTFALL       0.00  1341.40     0  02:05           0        20.2       0.000
  JK-storage           STORAGE       0.00   984.88     0  02:11           0        11.7      -8.238
  CC-storage           STORAGE       0.00  2148.28     0  01:55           0        6.82       0.959
  XR-storage           STORAGE    1054.62  1054.62     0  03:01        15.5        16.1       0.000
  
  
  **********************
  Node Surcharge Summary
  **********************
  
  Surcharging occurs when water rises above the top of the highest conduit.
  ---------------------------------------------------------------------
                                               Max. Height   Min. Depth
                                   Hours       Above Crown    Below Rim
  Node                 Type      Surcharged         Meters       Meters
  ---------------------------------------------------------------------
  WS02004401           JUNCTION        1.13          0.309        1.351
  WS02004402           JUNCTION        1.15          0.296        1.444
  WS02004403           JUNCTION        1.15          0.270        1.760
  WS02004404           JUNCTION        1.30          0.313        2.467
  WS02004406           JUNCTION        1.24          0.204        2.246
  WS02004413           JUNCTION        0.41          0.031        2.169
  WS02004405           JUNCTION        1.27          0.281        2.519
  WS02006109           JUNCTION        2.86          0.937        0.883
  WS02006110           JUNCTION        1.83          0.634        1.216
  WS02006111           JUNCTION        0.29          0.226        1.644
  WS02006112           JUNCTION        2.01          0.654        1.026
  WS02006113           JUNCTION        0.34          0.242        1.688
  WS02006115           JUNCTION        0.71          0.303        1.947
  WS02006116           JUNCTION        0.77          0.287        2.003
  WS02006230           JUNCTION        1.59          0.900        0.670
  WS02006231           JUNCTION        1.83          0.899        0.631
  WS02006232           JUNCTION        2.80          1.003        0.477
  WS02006234           JUNCTION        2.08          0.872        0.368
  WS02006235           JUNCTION        2.26          0.886        0.404
  WS02006238           JUNCTION        2.44          0.892        0.538
  WS02006240           JUNCTION        1.93          0.734        0.656
  WS02006242           JUNCTION        2.10          0.731        0.089
  WS02006243           JUNCTION        1.87          0.588        0.182
  WS02006245           JUNCTION        1.82          0.512        0.338
  WS02006247           JUNCTION        1.86          0.492        0.268
  WS02006248           JUNCTION        1.67          0.380        0.000
  WS02006249           JUNCTION        1.74          0.390        0.000
  WS02006239           JUNCTION        2.05          0.800        0.490
  WS02006251           JUNCTION        1.04          0.311        0.869
  WS02006252           JUNCTION        2.00          0.386        0.714
  WS02006253           JUNCTION        1.29          0.482        1.998
  WS02006256           JUNCTION        6.80          2.050        0.000
  WS02006228           JUNCTION        2.78          1.109        1.091
  HS02004817           JUNCTION        0.15          0.011        1.729
  YS02001748           JUNCTION        6.04          0.309        0.881
  YS02001751           JUNCTION        6.08          0.583        0.617
  YS02001754           JUNCTION        6.14          0.791        0.359
  YS02001762           JUNCTION        6.19          1.040        0.110
  YS02001765           JUNCTION        6.18          0.988        0.112
  YS02001767           JUNCTION        6.18          0.942        0.088
  YS02001770           JUNCTION        6.18          0.897        0.023
  YS02001774           JUNCTION        6.19          0.985        0.065
  YS02001779           JUNCTION        6.13          0.680        0.000
  YS02001882           JUNCTION        1.82          0.675        0.155
  YS02001884           JUNCTION        1.83          0.705        0.165
  YS02001759           JUNCTION        6.20          1.079        0.131
  YS02001887           JUNCTION        1.88          0.775        0.175
  YS02001890           JUNCTION        1.91          0.760        0.000
  YS02001898           JUNCTION        1.79          0.537        0.203
  YS02001901           JUNCTION        1.86          0.681        0.189
  YS02001904           JUNCTION        1.85          0.637        0.213
  YS02001907           JUNCTION        2.42          0.950        0.000
  YS02001910           JUNCTION        1.94          0.938        0.162
  YS02001915           JUNCTION        1.81          0.839        0.161
  YS02001918           JUNCTION        1.67          0.704        0.106
  YS02001619           JUNCTION        6.09          0.571        0.039
  YS02001629           JUNCTION        6.09          0.467        0.003
  YS02001641           JUNCTION        6.18          0.935        0.165
  YS02001644           JUNCTION        6.18          0.920        0.000
  YS02001652           JUNCTION        6.15          0.874        0.256
  YS02001655           JUNCTION        6.10          0.714        0.486
  YS02001920           JUNCTION        1.69          0.891        0.249
  YS02001923           JUNCTION        0.01          0.500        0.320
  YS02001926           JUNCTION        0.01          0.900        0.000
  YS02001658           JUNCTION        6.05          0.488        0.812
  YS02001661           JUNCTION        0.06          0.324        1.066
  YS02001622           JUNCTION        6.10          0.567        0.053
  YS02001633           JUNCTION        6.17          0.928        0.132
  YS02001649           JUNCTION        6.19          1.043        0.007
  YS02001757           JUNCTION        6.23          1.180        0.030
  YS02001895           JUNCTION        1.79          0.567        0.183
  YS02001625           JUNCTION        6.15          0.780        0.000
  YS02163301           JUNCTION        6.17          0.884        0.146
  YS02163601           JUNCTION        6.20          0.993        0.087
  YS02164001           JUNCTION        6.17          0.923        0.177
  YS02001647           JUNCTION        6.15          0.788        0.112
  YS02006553           JUNCTION        2.50          0.971        0.219
  YS02006561           JUNCTION        1.71          0.295        0.855
  YS02006556           JUNCTION        2.11          0.894        0.456
  YS02006558           JUNCTION        2.08          0.879        0.521
  YS02001783           JUNCTION        1.95          0.828        0.772
  YS02001784           JUNCTION        1.93          0.902        0.588
  YS02001786           JUNCTION        1.87          0.716        0.714
  YS02001788           JUNCTION        1.82          0.654        0.826
  YS02001790           JUNCTION        2.70          1.157        0.000
  YS02001791           JUNCTION        2.78          1.016        0.904
  YS02001793           JUNCTION        3.02          1.529        1.071
  
  
  *********************
  Node Flooding Summary
  *********************
  
  Flooding refers to all water that overflows a node, whether it ponds or not.
  --------------------------------------------------------------------------
                                                             Total   Maximum
                                 Maximum   Time of Max       Flood    Ponded
                        Hours       Rate    Occurrence      Volume     Depth
  Node                 Flooded       LPS   days hr:min    10^6 ltr    Meters
  --------------------------------------------------------------------------
  WS02006248              0.16     58.62      0  01:57       0.013     0.000
  WS02006249              1.16    179.78      0  02:50       0.277     0.000
  WS02006256              4.20    978.40      0  00:00       8.054     0.000
  YS02001779              3.61    716.27      0  02:40       4.277     0.000
  YS02001890              0.81    162.08      0  02:12       0.274     0.000
  YS02001907              1.53    713.34      0  02:16       2.681     0.000
  YS02001644              5.70   1552.53      0  02:39      13.467     0.000
  YS02001926              0.01    212.89      0  01:51       0.000     0.000
  YS02001625              2.14    435.57      0  02:16       1.968     0.000
  YS02001790              0.01    182.44      0  01:44       0.000     0.000
  JK-storage              0.89    866.78      0  01:50       1.074     0.000
  XR-storage              4.70    674.58      0  03:01       5.154     0.000
  
  
  **********************
  Storage Volume Summary
  **********************
  
  --------------------------------------------------------------------------------------------------
                         Average     Avg  Evap Exfil       Maximum     Max    Time of Max    Maximum
                          Volume    Pcnt  Pcnt  Pcnt        Volume    Pcnt     Occurrence    Outflow
  Storage Unit           1000 m3    Full  Loss  Loss       1000 m3    Full    days hr:min        LPS
  --------------------------------------------------------------------------------------------------
  JK-storage               0.141      48     0     0         0.291     100       0  01:44     983.00
  CC-storage               3.327      21     0     0         4.025      26       0  03:07     400.00
  XR-storage               0.848      91     0     0         0.926     100       0  02:06     380.00
  
  
  ***********************
  Outfall Loading Summary
  ***********************
  
  ---------------------------------------------------------------------------------------------------------------------------------
                         Flow       Avg       Max       Total         Total         Total         Total         Total         Total
                         Freq      Flow      Flow      Volume           COD            SS            TN            TP         NH4-N
  Outfall Node           Pcnt       LPS       LPS    10^6 ltr            kg            kg            kg            kg            kg
  ---------------------------------------------------------------------------------------------------------------------------------
  WSC                   99.98    764.45   1341.40      20.237      2511.822      4480.393       140.356        16.113        83.795
  ---------------------------------------------------------------------------------------------------------------------------------
  System                99.98    764.45   1341.40      20.237      2511.822      4480.393       140.356        16.113        83.795
  
  
  ********************
  Link Flow Summary
  ********************
  
  -----------------------------------------------------------------------------
                                 Maximum  Time of Max   Maximum    Max/    Max/
                                  |Flow|   Occurrence   |Veloc|    Full    Full
  Link                 Type          LPS  days hr:min     m/sec    Flow   Depth
  -----------------------------------------------------------------------------
  WS02003066WSF200     CONDUIT    955.05     0  01:58      3.01    0.16    0.32
  WS02006287WS02006284 CONDUIT    735.70     0  01:54      2.45    0.34    0.41
  WS02006284WS02006280 CONDUIT    736.05     0  01:54      2.68    0.31    0.38
  WS02006280WS02006229 CONDUIT    759.17     0  01:55      4.30    0.16    0.58
  WS02006229WS02006228 CONDUIT    937.40     0  01:56      1.86    3.10    1.00
  WS02006256WS02006235 CONDUIT    288.60     0  00:00      4.23    3.05    1.00
  WS02006253WS02006251 CONDUIT    189.09     0  01:54      0.76    0.57    1.00
  WS02006252WS02006251 CONDUIT    400.87     0  05:23      3.19    1.47    1.00
  WS02006251WS02006249 CONDUIT    450.83     0  02:50      1.17    1.30    1.00
  WS02006249WS02006248 CONDUIT    390.34     0  06:03      1.19    2.14    1.00
  WS02006248WS02006247 CONDUIT    386.10     0  06:03      1.17    0.84    1.00
  WS02006247WS02006245 CONDUIT    385.02     0  06:10      1.14    3.05    1.00
  WS02006245WS02006243 CONDUIT    384.83     0  06:10      1.18    1.14    1.00
  WS02006243WS02006242 CONDUIT    384.64     0  06:10      1.07    0.82    1.00
  WS02006242WS02006240 CONDUIT    384.43     0  06:10      1.00    1.53    1.00
  WS02006240WS02006239 CONDUIT    384.39     0  06:11      1.04    1.21    1.00
  WS02006239WS02006238 CONDUIT    384.18     0  06:11      1.00    1.23    1.00
  WS02006238WS02006235 CONDUIT    384.72     0  06:11      1.46    0.86    1.00
  WS02006235WS02006234 CONDUIT    522.01     0  05:30      1.36    5.51    1.00
  WS02006234WS02006232 CONDUIT    521.92     0  05:20      1.39    1.06    1.00
  WS02006232WS02006231 CONDUIT    521.70     0  05:30      1.36    1.09    1.00
  WS02006231WS02006230 CONDUIT    521.64     0  05:30      1.40    7.91    1.00
  WS02006230WS02006229 CONDUIT    531.59     0  05:32      1.38   11.83    1.00
  WS02006228WS02006109 CONDUIT    937.56     0  01:56      1.87    4.10    1.00
  WS02006116WS02004401 CONDUIT    968.23     0  01:56      1.23    1.33    1.00
  WS02006115WS02006116 CONDUIT    967.78     0  01:56      1.23    1.24    1.00
  WS02006113WS02006111 CONDUIT    937.79     0  01:56      2.60    1.12    1.00
  WS02006112WS02006115 CONDUIT    966.91     0  01:56      1.23    0.57    1.00
  WS02006111WS02006112 CONDUIT    937.72     0  01:56      1.87    0.45    1.00
  WS02006110WS02006113 CONDUIT    938.50     0  01:56      1.87    0.85    1.00
  WS02006109WS02006110 CONDUIT    938.67     0  01:56      1.87    1.80    1.00
  WS02004411WS02004412 CONDUIT    953.57     0  01:58      1.26    1.35    0.93
  WS02004401WS02004402 CONDUIT    968.53     0  01:56      1.23    1.16    1.00
  WS02004413WS02003067 CONDUIT    953.85     0  01:58      1.57    0.41    0.72
  WS02004412WS02004413 CONDUIT    953.69     0  01:58      1.23    0.64    0.96
  WS02004410WS02004411 CONDUIT    951.75     0  01:58      1.24    1.30    0.95
  WS02004409WS02004410 CONDUIT    956.91     0  01:57      1.24    1.24    0.97
  WS02004407WS02004409 CONDUIT    968.68     0  01:56      1.73    0.34    0.69
  WS02004406WS02004407 CONDUIT    971.46     0  01:56      1.65    0.43    0.70
  WS02004405WS02004406 CONDUIT    970.80     0  01:56      1.24    1.91    1.00
  WS02004404WS02004405 CONDUIT    971.05     0  01:56      1.24    9.51    1.00
  WS02004403WS02004404 CONDUIT    969.28     0  01:56      1.23    0.70    1.00
  WS02004402WS02004403 CONDUIT    968.62     0  01:56      1.23    1.39    1.00
  WS02004139WS02001211 CONDUIT    382.24     0  05:48      0.90    0.48    0.64
  WS02004138WS02004139 CONDUIT    396.19     0  00:00      3.65    0.08    0.47
  WS02003067WS02003066 CONDUIT    954.53     0  01:58      1.66    0.31    0.51
  WS02001213WS02003059 CONDUIT    396.72     0  05:47      0.88    0.65    0.87
  WS02001212WS02001213 CONDUIT    393.66     0  05:47      1.32    0.61    0.56
  WS02001211WS02001212 CONDUIT    391.68     0  05:48      0.78    0.30    0.71
  WS02003072WS02003073 CONDUIT   1339.24     0  02:04      1.96    2.89    0.58
  WS02003069WS02003072 CONDUIT   1338.97     0  02:04      1.82    0.64    0.62
  WS02003060WS02003069 CONDUIT   1338.68     0  02:03      2.03    0.52    0.57
  WS02003059WS02003060 CONDUIT    400.60     0  05:49      0.95    0.26    0.77
  HS02004901HS02004770 CONDUIT     36.83     0  01:52      0.10    0.14    0.54
  HS02004876HS02004881 CONDUIT    139.06     0  01:54      1.26    1.48    0.16
  HS02004870HS02004876 CONDUIT    112.62     0  01:54      0.85    0.07    0.19
  HS02004842HS02004848 CONDUIT     18.18     0  02:06      0.08    0.01    0.34
  HS02004837HS02004842 CONDUIT     18.64     0  02:07      0.42    0.01    0.35
  HS02004830HS02004837 CONDUIT     67.83     0  01:54      0.68    0.07    0.14
  HS02004824HS02004830 CONDUIT     68.05     0  01:56      0.62    0.09    0.18
  HS02004817HS02004824 CONDUIT    136.33     0  01:57      0.32    0.06    0.60
  HS02004770HS02004777 CONDUIT    189.67     0  01:52      0.49    0.35    0.55
  HS02004799HS02004480 CONDUIT    470.62     0  01:53      1.09    0.59    0.62
  HS02004792HS02004799 CONDUIT    430.86     0  01:53      1.22    0.26    0.50
  HS02004788HS02004792 CONDUIT    248.72     0  01:54      1.29    0.16    0.28
  HS02004785HS02004788 CONDUIT    189.52     0  01:53      0.92    1.43    0.30
  HS02004777HS02004785 CONDUIT    189.40     0  01:53      0.59    0.23    0.46
  HS02004480HS02004478 CONDUIT    554.36     0  01:53      1.59    2.33    0.50
  HS02004479HS02004480 CONDUIT     83.72     0  01:53      0.37    0.08    0.59
  HS02004862HS02004870 CONDUIT     86.17     0  01:55      0.82    0.09    0.15
  HS02004848HS02004852 CONDUIT     40.37     0  01:54      0.54    0.05    0.11
  HS02004856HS02004862 CONDUIT     60.18     0  01:54      0.61    0.06    0.14
  HS02004852HS02004856 CONDUIT     40.43     0  01:55      0.35    0.05    0.17
  HS02004802HS02004478 CONDUIT    184.71     0  01:57      0.53    0.16    0.50
  HS02004478WS02006287 CONDUIT    735.61     0  01:54      2.18    0.21    0.38
  HS02004817HS02004807 CONDUIT    137.14     0  01:57      0.26    0.08    0.77
  HS02004807HS02004802 CONDUIT    183.90     0  01:56      0.47    0.35    0.56
  YS02001759YS02001757 CONDUIT    877.98     0  01:56      1.12    0.62    1.00
  YS02001762YS02001759 CONDUIT    432.26     0  01:55      0.55    0.50    1.00
  YS02001765YS02001762 CONDUIT    432.02     0  01:54      0.55    0.41    1.00
  YS02001770YS02001767 CONDUIT    432.28     0  01:55      0.55    1.71    1.00
  YS02001774YS02001770 CONDUIT    716.27     0  02:40      0.91    0.46    1.00
  YS02001779YS02001774 CONDUIT    716.27     0  02:40      0.91    0.36    1.00
  YS02001649YS02001757 CONDUIT   1001.65     0  01:49      1.28    0.61    1.00
  YS02001767YS02001765 CONDUIT    432.11     0  01:55      0.55    0.54    1.00
  YS02006561YS02001783 CONDUIT    982.45     0  02:13      2.14    0.51    1.00
  YS02001783YS02001784 CONDUIT    982.82     0  02:13      1.96    1.35    1.00
  YS02001784YS02001785 CONDUIT    983.39     0  02:15      1.96    2.29    1.00
  YS02001788YS02001790 CONDUIT    983.71     0  02:15      2.44    0.73    1.00
  YS02001790YS02001791 CONDUIT    983.65     0  02:15      2.89    1.07    1.00
  YS02001791YS02001793 CONDUIT    984.35     0  02:12      5.75    0.42    1.00
  YS02001910YS02001907 CONDUIT    653.11     0  01:52      0.83    0.37    1.00
  YS02001786YS02001788 CONDUIT    983.40     0  02:15      2.31    1.89    1.00
  YS02001915YS02001910 CONDUIT    652.78     0  01:52      0.83    0.32    1.00
  YS02001918YS02001915 CONDUIT    372.43     0  01:52      0.48    0.21    1.00
  YS02001923YS02001920 CONDUIT    368.15     0  01:52      0.81    0.17    1.00
  YS02001926YS02001923 CONDUIT    310.77     0  01:53      0.93    0.44    1.00
  YS02001929YS02001926 CONDUIT    255.42     0  01:52      0.98    0.12    0.99
  YS02001920YS02001918 CONDUIT    371.39     0  01:52      0.77    0.36    1.00
  YS02001629YS02163301 CONDUIT    221.32     0  01:47      0.28    0.27    1.00
  YS02001619YS02001622 CONDUIT    388.97     0  02:16      0.74    0.57    1.00
  YS02001622YS02001625 CONDUIT    388.76     0  02:16      0.49    0.21    1.00
  YS02001625YS02001629 CONDUIT    221.42     0  01:48      0.29    0.11    1.00
  YS02163301YS02001633 CONDUIT    222.72     0  01:47      0.28    0.21    1.00
  YS02163601YS02164001 CONDUIT    456.87     0  01:48      0.58    0.40    1.00
  YS02164001YS02001641 CONDUIT    455.84     0  01:48      0.58    0.62    1.00
  YS02001641YS02001644 CONDUIT    454.94     0  01:48      0.58    1.47    1.00
  YS02001647YS02001649 CONDUIT    787.66     0  02:41      1.00    0.42    1.00
  YS02006553YS02006556 CONDUIT    718.56     0  03:36      0.91    0.61    1.00
  YS02006556YS02006558 CONDUIT    719.06     0  03:36      0.92    0.57    1.00
  YSB6556YSB1171       CONDUIT     46.63     0  01:54      0.14    0.05    0.84
  YS02001907YS02006553 CONDUIT    717.87     0  03:36      0.80    0.84    1.00
  YS02006558YS02006561 CONDUIT    982.54     0  02:16      3.48    2.17    1.00
  YS02001633YS02163601 CONDUIT    457.34     0  01:48      0.58    0.48    1.00
  YS02001644YS02001647 CONDUIT    787.66     0  02:41      1.00    0.46    1.00
  YS02001745YS02001748 CONDUIT    449.77     0  02:16      1.67    0.17    0.98
  YS02001748YS02001751 CONDUIT    449.87     0  02:16      1.21    0.23    1.00
  YS02001751YS02001754 CONDUIT    450.38     0  02:16      1.02    0.22    1.00
  YS02001754YS02001757 CONDUIT    450.20     0  02:16      0.57    0.18    1.00
  YS02001882YS02001884 CONDUIT     56.59     0  01:48      0.16    0.06    1.00
  YS02001884YS02001887 CONDUIT     65.66     0  01:46      0.12    0.09    1.00
  YS02001890YS02001895 CONDUIT    521.59     0  01:51      0.66    0.24    1.00
  YS02001895YS02001898 CONDUIT    521.67     0  01:51      0.66    0.91    1.00
  YS02001898YS02001901 CONDUIT    522.22     0  01:51      0.66    0.34    1.00
  YS02001901YS02001904 CONDUIT    521.35     0  01:51      0.66    0.81    1.00
  YS02001904YS02001907 CONDUIT    523.12     0  01:50      0.67    0.18    1.00
  YS02001887YS02001890 CONDUIT    677.57     0  02:12      0.86    1.16    1.00
  YS02001652YS02001649 CONDUIT    521.36     0  02:09      0.71    0.26    1.00
  YS02001655YS02001652 CONDUIT    519.29     0  02:09      1.09    0.25    1.00
  YS02001658YS02001655 CONDUIT    518.31     0  02:09      1.41    0.22    1.00
  YS02001661YS02001658 CONDUIT    516.82     0  02:09      1.78    0.20    1.00
  YS02001664YS02001661 CONDUIT    756.28     0  01:52      1.69    0.24    0.76
  YSB1154YSB6556       CONDUIT     46.63     0  01:53      0.15    0.08    0.75
  YSB1174YSB1171       CONDUIT     38.39     0  01:50      0.11    0.06    0.87
  YSB1171HS02004479    CONDUIT     83.75     0  01:53      0.54    0.06    0.70
  HS02004881HS02006253 CONDUIT    157.89     0  01:54      2.75    0.03    0.54
  YS02001793JiankangQianchi CONDUIT    984.88     0  02:11     16.37    0.08    1.00
  YS02001757CaochengTiaoxuchi CONDUIT   2148.28     0  01:55      3.55    0.94    1.00
  WSF200WS02003060     CONDUIT    955.96     0  01:58      1.97    0.21    0.45
  1                    CONDUIT   1341.40     0  02:05      3.59    0.47    0.48
  CC-Pump-1            PUMP       200.00     0  02:20              1.00
  CC-Pump-2            PUMP       200.00     0  05:20              1.00
  JK-Pump-1            PUMP       300.00     0  00:00              1.00
  JK-Pump-2            PUMP       683.00     0  00:00              1.00
  XR-Pump-1            PUMP        95.00     0  00:00              1.00
  XR-Pump-2            PUMP        95.00     0  00:00              1.00
  XR-Pump-3            PUMP        95.00     0  00:00              1.00
  XR-Pump-4            PUMP        95.00     0  00:00              1.00
  
  
  ***************************
  Flow Classification Summary
  ***************************
  
  -------------------------------------------------------------------------------------
                      Adjusted    ---------- Fraction of Time in Flow Class ---------- 
                       /Actual         Up    Down  Sub   Sup   Up    Down  Norm  Inlet 
  Conduit               Length    Dry  Dry   Dry   Crit  Crit  Crit  Crit  Ltd   Ctrl  
  -------------------------------------------------------------------------------------
  WS02003066WSF200        1.00   0.01  0.07  0.00  0.00  0.92  0.00  0.00  0.51  0.00
  WS02006287WS02006284    1.00   0.03  0.01  0.00  0.65  0.31  0.00  0.00  0.63  0.00
  WS02006284WS02006280    1.00   0.04  0.00  0.00  0.00  0.00  0.00  0.96  0.00  0.00
  WS02006280WS02006229    1.00   0.04  0.00  0.00  0.02  0.04  0.00  0.89  0.02  0.00
  WS02006229WS02006228    1.00   0.00  0.00  0.00  1.00  0.00  0.00  0.00  0.00  0.00
  WS02006256WS02006235    1.00   0.00  0.00  0.00  1.00  0.00  0.00  0.00  0.00  0.00
  WS02006253WS02006251    1.00   0.02  0.02  0.00  0.96  0.00  0.01  0.00  0.00  0.00
  WS02006252WS02006251    1.00   0.12  0.00  0.00  0.15  0.00  0.73  0.00  0.00  0.00
  WS02006251WS02006249    1.00   0.00  0.00  0.00  1.00  0.00  0.00  0.00  0.34  0.00
  WS02006249WS02006248    1.00   0.00  0.01  0.00  0.89  0.00  0.11  0.00  0.00  0.00
  WS02006248WS02006247    1.00   0.01  0.00  0.00  0.98  0.00  0.00  0.02  0.13  0.00
  WS02006247WS02006245    1.00   0.01  0.00  0.00  0.95  0.00  0.00  0.04  0.00  0.00
  WS02006245WS02006243    1.00   0.00  0.00  0.00  0.93  0.00  0.00  0.07  0.02  0.00
  WS02006243WS02006242    1.00   0.00  0.00  0.00  0.99  0.00  0.00  0.00  0.25  0.00
  WS02006242WS02006240    1.00   0.00  0.00  0.00  0.99  0.00  0.01  0.00  0.00  0.00
  WS02006240WS02006239    1.00   0.00  0.00  0.00  0.94  0.00  0.00  0.05  0.02  0.00
  WS02006239WS02006238    1.00   0.00  0.00  0.00  1.00  0.00  0.00  0.00  0.12  0.00
  WS02006238WS02006235    1.00   0.00  0.00  0.00  1.00  0.00  0.00  0.00  0.00  0.00
  WS02006235WS02006234    1.00   0.00  0.00  0.00  0.96  0.00  0.04  0.00  0.00  0.00
  WS02006234WS02006232    1.00   0.00  0.00  0.00  1.00  0.00  0.00  0.00  0.08  0.00
  WS02006232WS02006231    1.00   0.00  0.00  0.00  1.00  0.00  0.00  0.00  0.00  0.00
  WS02006231WS02006230    1.00   0.00  0.00  0.00  0.68  0.00  0.32  0.00  0.00  0.00
  WS02006230WS02006229    1.00   0.00  0.00  0.00  1.00  0.00  0.00  0.00  0.01  0.00
  WS02006228WS02006109    1.00   0.00  0.00  0.00  1.00  0.00  0.00  0.00  0.00  0.00
  WS02006116WS02004401    1.00   0.01  0.00  0.00  0.99  0.00  0.00  0.00  0.01  0.00
  WS02006115WS02006116    1.00   0.01  0.00  0.00  0.97  0.00  0.00  0.02  0.01  0.00
  WS02006113WS02006111    1.00   0.01  0.00  0.00  0.08  0.91  0.00  0.00  0.19  0.00
  WS02006112WS02006115    1.00   0.01  0.00  0.00  0.99  0.00  0.00  0.00  0.00  0.00
  WS02006111WS02006112    1.00   0.01  0.00  0.00  0.99  0.00  0.00  0.00  0.82  0.00
  WS02006110WS02006113    1.00   0.00  0.00  0.00  0.99  0.00  0.00  0.00  0.00  0.00
  WS02006109WS02006110    1.00   0.00  0.00  0.00  0.99  0.00  0.00  0.00  0.00  0.00
  WS02004411WS02004412    1.00   0.06  0.00  0.00  0.94  0.00  0.00  0.00  0.00  0.00
  WS02004401WS02004402    1.00   0.01  0.00  0.00  0.99  0.00  0.00  0.00  0.01  0.00
  WS02004413WS02003067    1.00   0.06  0.01  0.00  0.00  0.00  0.93  0.00  0.00  0.00
  WS02004412WS02004413    1.00   0.06  0.00  0.00  0.94  0.00  0.00  0.00  0.00  0.00
  WS02004410WS02004411    1.00   0.06  0.00  0.00  0.94  0.00  0.00  0.00  0.00  0.00
  WS02004409WS02004410    1.00   0.06  0.00  0.00  0.94  0.00  0.00  0.00  0.00  0.00
  WS02004407WS02004409    1.00   0.06  0.00  0.00  0.93  0.01  0.00  0.00  0.81  0.00
  WS02004406WS02004407    1.00   0.00  0.06  0.00  0.94  0.00  0.00  0.00  0.00  0.00
  WS02004405WS02004406    1.00   0.00  0.00  0.00  1.00  0.00  0.00  0.00  0.02  0.00
  WS02004404WS02004405    1.00   0.00  0.00  0.00  1.00  0.00  0.00  0.00  0.00  0.00
  WS02004403WS02004404    1.00   0.00  0.01  0.00  0.99  0.00  0.00  0.00  0.02  0.00
  WS02004402WS02004403    1.00   0.01  0.00  0.00  0.99  0.00  0.00  0.00  0.00  0.00
  WS02004139WS02001211    1.00   0.00  0.00  0.00  1.00  0.00  0.00  0.00  0.00  0.00
  WS02004138WS02004139    1.00   0.00  0.00  0.00  1.00  0.00  0.00  0.00  1.00  0.00
  WS02003067WS02003066    1.00   0.07  0.00  0.00  0.92  0.00  0.00  0.00  0.00  0.00
  WS02001213WS02003059    1.00   0.00  0.00  0.00  1.00  0.00  0.00  0.00  0.00  0.00
  WS02001212WS02001213    1.00   0.00  0.00  0.00  0.91  0.00  0.09  0.00  0.00  0.00
  WS02001211WS02001212    1.00   0.00  0.00  0.00  1.00  0.00  0.00  0.00  0.00  0.00
  WS02003072WS02003073    1.00   0.00  0.00  0.00  0.00  0.00  0.00  1.00  0.00  0.00
  WS02003069WS02003072    1.00   0.00  0.00  0.00  1.00  0.00  0.00  0.00  0.10  0.00
  WS02003060WS02003069    1.00   0.00  0.00  0.00  0.99  0.01  0.00  0.00  0.08  0.00
  WS02003059WS02003060    1.00   0.00  0.00  0.00  1.00  0.00  0.00  0.00  0.00  0.00
  HS02004901HS02004770    1.00   0.04  0.00  0.00  0.96  0.00  0.00  0.00  0.00  0.00
  HS02004876HS02004881    1.00   0.01  0.00  0.00  0.88  0.11  0.00  0.00  0.00  0.00
  HS02004870HS02004876    1.00   0.00  0.00  0.00  0.99  0.00  0.00  0.00  0.95  0.00
  HS02004842HS02004848    1.00   0.00  0.04  0.00  0.96  0.00  0.00  0.00  0.56  0.00
  HS02004837HS02004842    1.00   0.00  0.00  0.00  1.00  0.00  0.00  0.00  0.11  0.00
  HS02004830HS02004837    1.00   0.00  0.00  0.00  1.00  0.00  0.00  0.00  0.99  0.00
  HS02004824HS02004830    1.00   0.00  0.00  0.00  1.00  0.00  0.00  0.00  0.03  0.00
  HS02004817HS02004824    1.00   0.00  0.00  0.00  1.00  0.00  0.00  0.00  0.92  0.00
  HS02004770HS02004777    1.00   0.00  0.04  0.00  0.96  0.00  0.00  0.00  0.02  0.00
  HS02004799HS02004480    1.00   0.00  0.01  0.00  0.95  0.00  0.03  0.00  0.00  0.00
  HS02004792HS02004799    1.00   0.00  0.00  0.00  1.00  0.00  0.00  0.00  0.98  0.00
  HS02004788HS02004792    1.00   0.00  0.00  0.00  1.00  0.00  0.00  0.00  0.98  0.00
  HS02004785HS02004788    1.00   0.00  0.00  0.00  1.00  0.00  0.00  0.00  0.00  0.00
  HS02004777HS02004785    1.00   0.00  0.00  0.00  1.00  0.00  0.00  0.00  0.11  0.00
  HS02004480HS02004478    1.00   0.04  0.00  0.00  0.69  0.00  0.00  0.27  0.00  0.00
  HS02004479HS02004480    1.00   0.01  0.00  0.00  0.99  0.00  0.00  0.00  0.11  0.00
  HS02004862HS02004870    1.00   0.00  0.00  0.00  1.00  0.00  0.00  0.00  0.03  0.00
  HS02004848HS02004852    1.00   0.04  0.00  0.00  0.96  0.00  0.00  0.00  0.79  0.00
  HS02004856HS02004862    1.00   0.00  0.05  0.00  0.95  0.00  0.00  0.00  0.84  0.00
  HS02004852HS02004856    1.00   0.04  0.00  0.00  0.96  0.00  0.00  0.00  0.77  0.00
  HS02004802HS02004478    1.00   0.04  0.00  0.00  0.96  0.00  0.00  0.00  0.02  0.00
  HS02004478WS02006287    1.00   0.05  0.00  0.00  0.73  0.22  0.00  0.00  0.62  0.00
  HS02004817HS02004807    1.00   0.00  0.04  0.00  0.96  0.00  0.00  0.00  0.01  0.00
  HS02004807HS02004802    1.00   0.04  0.00  0.00  0.96  0.00  0.00  0.00  0.00  0.00
  YS02001759YS02001757    1.00   0.00  0.00  0.00  1.00  0.00  0.00  0.00  0.15  0.00
  YS02001762YS02001759    1.00   0.00  0.00  0.00  1.00  0.00  0.00  0.00  0.02  0.00
  YS02001765YS02001762    1.00   0.00  0.00  0.00  1.00  0.00  0.00  0.00  0.13  0.00
  YS02001770YS02001767    1.00   0.00  0.00  0.00  1.00  0.00  0.00  0.00  0.00  0.00
  YS02001774YS02001770    1.00   0.00  0.04  0.00  0.96  0.00  0.00  0.00  0.02  0.00
  YS02001779YS02001774    1.00   0.00  0.00  0.00  1.00  0.00  0.00  0.00  0.17  0.00
  YS02001649YS02001757    1.00   0.00  0.00  0.00  1.00  0.00  0.00  0.00  0.15  0.00
  YS02001767YS02001765    1.00   0.00  0.00  0.00  1.00  0.00  0.00  0.00  0.00  0.00
  YS02006561YS02001783    1.00   0.05  0.00  0.00  0.38  0.57  0.00  0.00  0.43  0.00
  YS02001783YS02001784    1.00   0.00  0.05  0.00  0.95  0.00  0.00  0.00  0.00  0.00
  YS02001784YS02001785    1.00   0.00  0.00  0.00  1.00  0.00  0.00  0.00  0.16  0.00
  YS02001788YS02001790    1.00   0.00  0.00  0.00  0.44  0.56  0.00  0.00  0.34  0.00
  YS02001790YS02001791    1.00   0.00  0.00  0.00  0.39  0.61  0.00  0.00  0.41  0.00
  YS02001791YS02001793    1.00   0.00  0.00  0.00  0.41  0.59  0.00  0.00  0.02  0.00
  YS02001910YS02001907    1.00   0.00  0.00  0.00  0.99  0.00  0.00  0.01  0.12  0.00
  YS02001786YS02001788    1.00   0.00  0.00  0.00  0.42  0.58  0.00  0.00  0.00  0.00
  YS02001915YS02001910    1.00   0.00  0.00  0.00  0.99  0.01  0.00  0.00  0.13  0.00
  YS02001918YS02001915    1.00   0.00  0.00  0.00  0.99  0.01  0.00  0.00  0.51  0.00
  YS02001923YS02001920    1.00   0.00  0.00  0.00  1.00  0.00  0.00  0.00  0.74  0.00
  YS02001926YS02001923    1.00   0.00  0.02  0.00  0.21  0.00  0.77  0.00  0.00  0.00
  YS02001929YS02001926    1.00   0.00  0.04  0.00  0.96  0.00  0.00  0.00  0.65  0.00
  YS02001920YS02001918    1.00   0.00  0.00  0.00  1.00  0.00  0.00  0.00  0.00  0.00
  YS02001629YS02163301    1.00   0.04  0.00  0.00  0.95  0.00  0.00  0.00  0.00  0.00
  YS02001619YS02001622    1.00   0.04  0.00  0.00  0.96  0.00  0.00  0.00  0.00  0.00
  YS02001622YS02001625    1.00   0.04  0.00  0.00  0.96  0.00  0.00  0.00  0.03  0.00
  YS02001625YS02001629    1.00   0.04  0.01  0.00  0.93  0.00  0.02  0.00  0.00  0.00
  YS02163301YS02001633    1.00   0.00  0.04  0.00  0.96  0.00  0.00  0.00  0.00  0.00
  YS02163601YS02164001    1.00   0.00  0.03  0.00  0.97  0.00  0.00  0.00  0.00  0.00
  YS02164001YS02001641    1.00   0.00  0.02  0.00  0.97  0.00  0.00  0.00  0.06  0.00
  YS02001641YS02001644    1.00   0.00  0.00  0.00  1.00  0.00  0.00  0.00  0.00  0.00
  YS02001647YS02001649    1.00   0.00  0.05  0.00  0.95  0.00  0.00  0.00  0.01  0.00
  YS02006553YS02006556    1.00   0.01  0.00  0.00  0.99  0.00  0.00  0.00  0.03  0.00
  YS02006556YS02006558    1.00   0.00  0.00  0.00  1.00  0.00  0.00  0.00  0.00  0.00
  YSB6556YSB1171          1.00   0.01  0.02  0.00  0.96  0.00  0.00  0.00  0.00  0.00
  YS02001907YS02006553    1.00   0.00  0.01  0.00  0.99  0.00  0.00  0.00  0.00  0.00
  YS02006558YS02006561    1.00   0.05  0.00  0.00  0.22  0.73  0.00  0.00  0.45  0.00
  YS02001633YS02163601    1.00   0.00  0.00  0.00  1.00  0.00  0.00  0.00  0.15  0.00
  YS02001644YS02001647    1.00   0.00  0.05  0.00  0.95  0.00  0.00  0.00  0.00  0.00
  YS02001745YS02001748    1.00   0.00  0.00  0.00  0.92  0.00  0.00  0.08  0.01  0.00
  YS02001748YS02001751    1.00   0.00  0.00  0.00  0.97  0.03  0.00  0.00  0.14  0.00
  YS02001751YS02001754    1.00   0.00  0.00  0.00  0.94  0.00  0.00  0.06  0.01  0.00
  YS02001754YS02001757    1.00   0.00  0.00  0.00  1.00  0.00  0.00  0.00  0.17  0.00
  YS02001882YS02001884    1.00   0.04  0.00  0.00  0.95  0.00  0.00  0.00  0.00  0.00
  YS02001884YS02001887    1.00   0.02  0.02  0.00  0.96  0.00  0.00  0.00  0.00  0.00
  YS02001890YS02001895    1.00   0.00  0.04  0.00  0.95  0.00  0.00  0.00  0.00  0.00
  YS02001895YS02001898    1.00   0.05  0.00  0.00  0.94  0.00  0.01  0.00  0.00  0.00
  YS02001898YS02001901    1.00   0.05  0.00  0.00  0.95  0.00  0.00  0.00  0.01  0.00
  YS02001901YS02001904    1.00   0.05  0.00  0.00  0.95  0.00  0.00  0.00  0.00  0.00
  YS02001904YS02001907    1.00   0.00  0.05  0.00  0.95  0.00  0.00  0.00  0.00  0.00
  YS02001887YS02001890    1.00   0.00  0.00  0.00  0.99  0.00  0.01  0.00  0.00  0.00
  YS02001652YS02001649    1.00   0.00  0.00  0.00  1.00  0.00  0.00  0.00  0.15  0.00
  YS02001655YS02001652    1.00   0.00  0.00  0.00  0.94  0.00  0.00  0.06  0.01  0.00
  YS02001658YS02001655    1.00   0.00  0.04  0.00  0.93  0.03  0.00  0.00  0.02  0.00
  YS02001661YS02001658    1.00   0.04  0.00  0.00  0.92  0.04  0.00  0.00  0.01  0.00
  YS02001664YS02001661    1.00   0.04  0.00  0.00  0.93  0.04  0.00  0.00  0.10  0.00
  YSB1154YSB6556          1.00   0.04  0.00  0.00  0.96  0.00  0.00  0.00  0.01  0.00
  YSB1174YSB1171          1.00   0.02  0.01  0.00  0.97  0.00  0.00  0.00  0.00  0.00
  YSB1171HS02004479       1.00   0.01  0.00  0.00  0.98  0.00  0.00  0.00  0.10  0.00
  HS02004881HS02006253    1.00   0.02  0.00  0.00  0.56  0.02  0.00  0.40  0.40  0.00
  YS02001793JiankangQianchi    1.00   0.00  0.00  0.00  0.65  0.35  0.00  0.00  0.33  0.00
  YS02001757CaochengTiaoxuchi    1.00   0.00  0.07  0.00  0.90  0.03  0.00  0.00  0.00  0.00
  WSF200WS02003060        1.00   0.00  0.01  0.00  0.99  0.00  0.00  0.00  0.53  0.00
  1                       1.00   0.00  0.00  0.00  0.00  1.00  0.00  0.00  0.53  0.00
  
  
  *************************
  Conduit Surcharge Summary
  *************************
  
  ----------------------------------------------------------------------------
                                                           Hours        Hours 
                         --------- Hours Full --------   Above Full   Capacity
  Conduit                Both Ends  Upstream  Dnstream   Normal Flow   Limited
  ----------------------------------------------------------------------------
  WS02006229WS02006228        2.78      2.95      2.78      4.44         2.78
  WS02006256WS02006235        5.70      5.70      6.80      4.42         0.01
  WS02006253WS02006251        1.69      1.69      1.75      0.01         0.02
  WS02006252WS02006251        1.35      1.35      2.00      1.02         0.01
  WS02006251WS02006249        1.69      1.70      1.74      0.65         0.47
  WS02006249WS02006248        1.67      1.67      1.74      2.10         0.01
  WS02006248WS02006247        1.71      1.71      1.86      0.01         0.01
  WS02006247WS02006245        1.82      1.88      1.82      2.74         1.57
  WS02006245WS02006243        1.83      1.85      1.87      0.26         0.16
  WS02006243WS02006242        1.89      1.89      2.10      0.01         0.01
  WS02006242WS02006240        1.93      1.93      2.28      1.39         0.01
  WS02006240WS02006239        1.92      1.97      2.05      0.61         0.24
  WS02006239WS02006238        2.28      2.34      2.44      0.64         0.35
  WS02006238WS02006235        2.38      2.38      2.66      0.01         0.02
  WS02006235WS02006234        2.08      2.08      2.26      5.37         0.01
  WS02006234WS02006232        2.19      2.19      2.80      0.41         0.42
  WS02006232WS02006231        1.83      1.83      2.80      0.49         0.01
  WS02006231WS02006230        1.59      1.59      1.88      5.57         0.02
  WS02006230WS02006229        3.61      4.05      3.61      5.81         3.39
[...]
  YS02001779YS02001774        6.13      6.13      6.19      0.01         0.01
  YS02001649YS02001757        6.19      6.19      6.23      0.01         0.01
  YS02001767YS02001765        6.18      6.18      6.18      0.01         0.01
  YS02006561YS02001783        1.71      1.71      1.95      0.01         0.01
  YS02001783YS02001784        1.93      1.95      1.93      2.13         1.91
  YS02001784YS02001785        1.87      1.93      1.87      2.89         1.87
  YS02001788YS02001790        1.82      1.82      2.70      0.01         0.01
  YS02001790YS02001791        2.69      2.70      2.78      1.83         1.81
  YS02001791YS02001793        2.78      2.78      3.09      0.01         0.01
  YS02001910YS02001907        1.94      1.94      2.42      0.01         0.01
  YS02001786YS02001788        1.82      1.87      1.82      2.55         1.82
  YS02001915YS02001910        1.81      1.81      1.94      0.01         0.01
  YS02001918YS02001915        1.67      1.67      1.81      0.01         0.01
  YS02001923YS02001920        1.50      1.50      1.69      0.01         0.01
  YS02001926YS02001923        0.01      0.01      0.01      0.01         0.01
  YS02001929YS02001926        0.01      0.01      0.01      0.01         0.01
  YS02001920YS02001918        1.67      1.67      1.69      0.01         0.01
  YS02001629YS02163301        6.16      6.16      6.17      0.01         0.01
  YS02001619YS02001622        6.09      6.09      6.10      0.01         0.03
  YS02001622YS02001625        6.10      6.10      6.15      0.01         0.01
  YS02001625YS02001629        6.09      6.09      6.15      0.01         0.01
  YS02163301YS02001633        6.17      6.17      6.18      0.01         0.01
  YS02163601YS02164001        6.17      6.17      6.20      0.01         0.01
  YS02164001YS02001641        6.17      6.17      6.18      0.01         0.02
  YS02001641YS02001644        6.18      6.18      6.18      2.38         2.42
  YS02001647YS02001649        6.15      6.15      6.19      0.01         0.01
  YS02006553YS02006556        2.11      2.11      2.49      0.01         0.01
  YS02006556YS02006558        2.21      2.21      2.53      0.01         0.01
  YSB6556YSB1171              0.01      0.01      0.30      0.01         0.01
  YS02001907YS02006553        2.92      2.92      3.16      0.01         0.01
  YS02006558YS02006561        1.80      2.08      1.80      2.78         1.80
  YS02001633YS02163601        6.17      6.17      6.20      0.01         0.01
  YS02001644YS02001647        6.15      6.15      6.18      0.01         0.01
  YS02001745YS02001748        0.01      0.01      6.04      0.01         0.01
  YS02001748YS02001751        6.05      6.05      6.08      0.01         0.01
  YS02001751YS02001754        6.08      6.08      6.14      0.01         0.01
  YS02001754YS02001757        6.15      6.15      6.23      0.01         0.01
  YS02001882YS02001884        1.82      1.82      1.83      0.01         0.01
  YS02001884YS02001887        1.86      1.86      1.88      0.01         0.01
  YS02001890YS02001895        1.79      1.79      1.95      0.01         0.01
  YS02001895YS02001898        1.79      1.79      1.79      0.01         0.01
  YS02001898YS02001901        1.80      1.80      1.86      0.01         0.01
  YS02001901YS02001904        1.85      1.85      1.86      0.01         0.01
  YS02001904YS02001907        1.85      1.85      2.50      0.01         0.01
  YS02001887YS02001890        1.91      1.91      1.93      0.52         0.01
  YS02001652YS02001649        6.15      6.15      6.19      0.01         0.01
  YS02001655YS02001652        6.10      6.10      6.15      0.01         0.01
  YS02001658YS02001655        6.05      6.05      6.10      0.01         0.01
  YS02001661YS02001658        0.05      0.05      6.05      0.01         0.01
  YS02001664YS02001661        0.01      0.01      1.63      0.01         0.01
  HS02004881HS02006253        0.01      0.01      1.29      0.01         0.01
  YS02001793JiankangQianchi        3.02      3.02      4.39      0.01         0.01
  YS02001757CaochengTiaoxuchi        5.75      5.75      6.23      0.01         0.01
  
  
  ***************
  Pumping Summary
  ***************
  
  ---------------------------------------------------------------------------------------------------------
                                                  Min       Avg       Max     Total     Power    % Time Off
                        Percent   Number of      Flow      Flow      Flow    Volume     Usage    Pump Curve
  Pump                 Utilized   Start-Ups       LPS       LPS       LPS  10^6 ltr     Kw-hr    Low   High
  ---------------------------------------------------------------------------------------------------------
  CC-Pump-1               46.81           4      0.00    150.75    200.00     1.920      1.81    0.0    0.0
  CC-Pump-2               21.27           4      0.00    104.11    200.00     0.720      0.90    0.0    0.0
  JK-Pump-1               61.70           4      0.00    231.77    300.00     3.970     54.08    0.0    0.0
  JK-Pump-2               59.57           4      0.00    433.98    683.00     7.545     89.60    0.0   97.7
  XR-Pump-1              100.00           1      0.00     95.00     95.00     2.679     22.41    0.0    0.0
  XR-Pump-2               97.87           2      0.00     92.84     95.00     2.508     18.83    0.0    0.0
  XR-Pump-3               95.74           3      0.00     93.12     95.00     2.451     17.59    0.0    0.0
  XR-Pump-4               95.74           3      0.00     93.12     95.00     2.451     17.59    0.0    0.0
  
  
  ***************************
  Link Pollutant Load Summary
  ***************************
  
  ------------------------------------------------------------------------------------------
                                 COD            SS            TN            TP         NH4-N
  Link                            kg            kg            kg            kg            kg
  ------------------------------------------------------------------------------------------
  WS02003066WSF200          1017.981      1964.628        24.661         2.084        12.746
  WS02006287WS02006284       438.116       854.614        12.585         1.181         6.762
  WS02006284WS02006280       438.622       855.432        12.633         1.187         6.792
  WS02006280WS02006229       438.633       855.504        12.631         1.186         6.790
  WS02006229WS02006228      1004.413      1939.078        23.938         1.997        12.315
  WS02006256WS02006235       246.763       466.366         5.110         0.379         2.533
  WS02006253WS02006251        84.459       170.008         1.779         0.130         0.871
  WS02006252WS02006251       280.950       539.435         5.338         0.368         2.567
  WS02006251WS02006249       358.836       697.060         7.000         0.490         3.384
  WS02006249WS02006248       324.282       627.981         6.333         0.444         3.063
  WS02006248WS02006247       323.370       625.956         6.318         0.443         3.056
  WS02006247WS02006245       323.797       626.827         6.324         0.443         3.059
  WS02006245WS02006243       324.376       628.145         6.331         0.443         3.061
  WS02006243WS02006242       325.887       631.044         6.363         0.446         3.077
  WS02006242WS02006240       327.104       633.089         6.390         0.448         3.091
  WS02006240WS02006239       328.266       634.865         6.420         0.450         3.106
  WS02006239WS02006238       329.538       636.518         6.465         0.454         3.131
  WS02006238WS02006235       330.058       636.931         6.486         0.456         3.143
  WS02006235WS02006234       567.078      1086.013        11.360         0.816         5.555
  WS02006234WS02006232       567.067      1085.967        11.362         0.817         5.556
  WS02006232WS02006231       566.923      1085.691        11.360         0.817         5.555
  WS02006231WS02006230       567.206      1086.266        11.369         0.818         5.560
  WS02006230WS02006229       568.292      1088.323        11.405         0.821         5.580
  WS02006228WS02006109      1003.501      1937.480        23.887         1.991        12.285
  WS02006116WS02004401      1025.051      1977.674        24.827         2.097        12.831
  WS02006115WS02006116      1025.993      1979.420        24.856         2.100        12.847
  WS02006113WS02006111      1010.644      1948.986        24.620         2.084        12.745
  WS02006112WS02006115      1026.770      1980.808        24.890         2.104        12.867
  WS02006111WS02006112      1010.022      1947.727        24.598         2.081        12.732
  WS02006110WS02006113      1010.705      1948.946        24.631         2.085        12.752
  WS02006109WS02006110      1011.278      1949.798        24.670         2.090        12.775
  WS02004411WS02004412      1020.236      1968.704        24.750         2.094        12.797
  WS02004401WS02004402      1024.177      1976.110        24.792         2.094        12.811
  WS02004413WS02003067      1018.401      1965.423        24.669         2.085        12.750
  WS02004412WS02004413      1019.481      1967.311        24.727         2.091        12.785
  WS02004410WS02004411      1020.749      1969.651        24.763         2.095        12.804
  WS02004409WS02004410      1021.252      1970.570        24.779         2.096        12.813
  WS02004407WS02004409      1021.593      1971.203        24.785         2.097        12.816
  WS02004406WS02004407      1021.577      1971.166        24.778         2.096        12.811
  WS02004405WS02004406      1022.657      1973.027        24.838         2.102        12.847
  WS02004404WS02004405      1023.283      1974.280        24.825         2.100        12.836
  WS02004403WS02004404      1022.624      1973.306        24.736         2.088        12.779
  WS02004402WS02004403      1023.358      1974.620        24.765         2.091        12.796
  WS02004139WS02001211      1353.783      2294.871       101.450        12.236        62.110
  WS02004138WS02004139      1359.766      2304.975       101.892        12.289        62.380
  WS02003067WS02003066      1018.099      1964.841        24.666         2.085        12.749
  WS02001213WS02003059      1387.791      2348.152       104.996        12.683        64.339
  WS02001212WS02001213      1396.449      2362.628       105.675        12.766        64.757
  WS02001211WS02001212      1398.381      2365.788       105.841        12.786        64.859
  WS02003072WS02003073      2506.792      4473.252       139.654        16.022        83.347
  WS02003069WS02003072      2511.403      4480.798       140.050        16.071        83.592
  WS02003060WS02003069      2514.129      4485.492       140.227        16.092        83.699
  WS02003059WS02003060      1385.311      2343.861       104.838        12.665        64.244
  HS02004901HS02004770        19.398        38.440         0.369         0.028         0.174
  HS02004876HS02004881        64.844       131.160         1.382         0.100         0.674
  HS02004870HS02004876        49.303        99.622         1.094         0.080         0.537
  HS02004842HS02004848         9.279        18.137         0.191         0.013         0.089
  HS02004837HS02004842        13.926        25.526         0.662         0.072         0.384
  HS02004830HS02004837        81.308       145.732         4.858         0.568         2.931
  HS02004824HS02004830        82.101       147.037         4.931         0.577         2.976
  HS02004817HS02004824       118.565       221.809         5.666         0.624         3.333
  HS02004770HS02004777        73.685       147.827         1.507         0.104         0.700
  HS02004799HS02004480       235.092       460.661         5.679         0.484         2.882
  HS02004792HS02004799       214.150       417.350         5.330         0.464         2.722
  HS02004788HS02004792       116.320       227.352         3.333         0.303         1.755
  HS02004785HS02004788        75.105       150.099         1.654         0.123         0.793
  HS02004777HS02004785        74.434       149.022         1.592         0.115         0.755
  HS02004480HS02004478       294.440       579.963         6.704         0.559         3.370
  HS02004479HS02004480        62.984       125.171         1.335         0.113         0.681
  HS02004862HS02004870        37.533        74.852         0.862         0.066         0.425
  HS02004848HS02004852        15.822        31.382         0.320         0.022         0.149
  HS02004856HS02004862        25.852        52.200         0.514         0.035         0.243
  HS02004852HS02004856        15.836        31.406         0.320         0.022         0.149
  HS02004802HS02004478       144.597       276.119         5.947         0.629         3.432
  HS02004478WS02006287       438.259       854.815        12.602         1.183         6.772
  HS02004817HS02004807       117.202       219.660         5.526         0.607         3.245
  HS02004807HS02004802       144.758       276.364         5.979         0.633         3.452
  YS02001759YS02001757       401.270       761.740         7.811         0.549         3.809
  YS02001762YS02001759       241.743       455.680         4.885         0.345         2.399
  YS02001765YS02001762       243.453       460.121         4.933         0.350         2.425
  YS02001770YS02001767       248.857       473.907         4.899         0.337         2.385
  YS02001774YS02001770       488.666       952.633         9.464         0.636         4.581
  YS02001779YS02001774       488.104       951.624         9.532         0.647         4.629
  YS02001649YS02001757       489.788       913.436         9.773         0.671         4.711
  YS02001767YS02001765       246.007       466.255         4.991         0.354         2.455
  YS02006561YS02001783      1264.493      2387.352        26.082         1.926        12.909
  YS02001783YS02001784      1264.492      2387.400        26.079         1.926        12.907
  YS02001784YS02001785      1271.923      2399.349        26.794         2.015        13.354
  YS02001788YS02001790      1272.626      2400.541        26.867         2.025        13.400
  YS02001790YS02001791      1273.688      2402.271        26.968         2.037        13.463
  YS02001791YS02001793      1273.737      2402.389        26.966         2.037        13.461
  YS02001910YS02001907       565.931      1068.690        12.774         0.943         6.449
  YS02001786YS02001788      1272.154      2399.746        26.822         2.019        13.372
  YS02001915YS02001910       565.567      1067.977        12.724         0.936         6.417
  YS02001918YS02001915       279.106       506.270         6.905         0.594         3.629
  YS02001923YS02001920       253.857       463.115         4.880         0.348         2.379
  YS02001926YS02001923       250.754       457.536         4.756         0.336         2.307
  YS02001929YS02001926       248.045       452.775         4.643         0.324         2.242
  YS02001920YS02001918       274.936       497.529         6.813         0.588         3.583
  YS02001629YS02163301        89.699       159.366         1.894         0.125         0.888
  YS02001619YS02001622       259.397       485.269         5.243         0.348         2.461
  YS02001622YS02001625       258.423       483.741         5.219         0.346         2.450
  YS02001625YS02001629        86.757       153.524         1.849         0.120         0.865
  YS02163301YS02001633        94.545       168.875         1.971         0.131         0.927
  YS02163601YS02164001       529.050       976.572        10.165         0.735         4.886
  YS02164001YS02001641       528.947       976.392        10.152         0.733         4.878
  YS02001641YS02001644       529.992       978.153        10.165         0.734         4.884
  YS02001647YS02001649       654.037      1224.691        13.020         0.904         6.229
  YS02006553YS02006556       783.167      1459.662        16.644         1.260         8.337
  YS02006556YS02006558       783.506      1460.306        16.613         1.255         8.315
  YSB6556YSB1171              36.521        72.734         0.718         0.058         0.359
  YS02001907YS02006553       783.058      1459.458        16.670         1.264         8.355
  YS02006558YS02006561      1264.387      2387.132        26.080         1.926        12.907
  YS02001633YS02163601       529.636       977.487        10.142         0.730         4.868
  YS02001644YS02001647       662.021      1239.593        13.140         0.913         6.284
  YS02001745YS02001748       354.038       679.924         6.988         0.437         3.357
  YS02001748YS02001751       353.374       678.802         6.996         0.440         3.365
  YS02001751YS02001754       352.466       677.319         6.981         0.440         3.359
  YS02001754YS02001757       353.312       678.597         7.148         0.462         3.468
  YS02001882YS02001884         4.188         7.443         0.080         0.006         0.039
  YS02001884YS02001887         7.693        13.893         0.145         0.011         0.072
  YS02001890YS02001895       614.938      1175.715        11.364         0.859         5.545
  YS02001895YS02001898       614.869      1175.692        11.359         0.858         5.542
  YS02001898YS02001901       614.748      1175.470        11.356         0.858         5.540
  YS02001901YS02001904       614.702      1175.454        11.367         0.859         5.548
  YS02001904YS02001907       615.115      1176.112        11.426         0.867         5.585
  YS02001887YS02001890       669.353      1284.549        12.358         0.936         6.033
  YS02001652YS02001649       320.488       606.885         6.380         0.461         2.997
  YS02001655YS02001652       321.053       607.806         6.396         0.462         3.005
  YS02001658YS02001655       320.654       607.178         6.312         0.451         2.950
  YS02001661YS02001658       321.342       608.302         6.329         0.452         2.957
  YS02001664YS02001661       327.420       617.458         6.482         0.462         3.027
  YSB1154YSB6556              36.100        72.067         0.671         0.053         0.330
  YSB1174YSB1171              24.948        50.013         0.489         0.039         0.242
  YSB1171HS02004479           62.904       125.022         1.341         0.114         0.684
  HS02004881HS02006253        73.209       148.583         1.535         0.110         0.748
  YS02001793JiankangQianchi      1274.482      2403.642        26.996         2.040        13.479
  YS02001757CaochengTiaoxuchi       691.659      1311.562        13.419         0.922         6.470
  WSF200WS02003060          1017.910      1964.465        24.669         2.086        12.752
  1                         2511.822      4480.393       140.356        16.113        83.795
  CC-Pump-1                  203.783       391.226         3.863         0.265         1.856
  CC-Pump-2                   76.618       147.178         1.453         0.100         0.698
  JK-Pump-1                  336.869       643.777         6.813         0.501         3.359
  JK-Pump-2                  741.222      1420.528        14.923         1.096         7.353
  XR-Pump-1                  374.871       632.196        28.804         3.488        17.675
  XR-Pump-2                  337.907       573.048        25.264         3.046        15.464
  XR-Pump-3                  325.330       552.926        24.059         2.895        14.711
  XR-Pump-4                  325.330       552.926        24.059         2.895        14.711
  

  Analysis begun on:  Thu Jul 15 19:15:06 2021
  Analysis ended on:  Thu Jul 15 19:15:08 2021
  Total elapsed time: 00:00:02