
  EPA STORM WATER MANAGEMENT MODEL - VERSION 5.1 (Build 5.3.0.dev0)
  --------------------------------------------------------------

  WARNING 04: minimum elevation drop used for Conduit WS02004404WS02004405
  WARNING 03: negative offset ignored for Link YS02001904YS02001907
  
  *********************************************************
  NOTE: The summary statistics displayed in this report are
  based on results found at every computational time step,  
  not just on results from each reporting time step.
  *********************************************************
  
  ****************
  Analysis Options
  ****************
  Flow Units ............... LPS
  Process Models:
    Rainfall/Runoff ........ YES
    RDII ................... NO
    Snowmelt ............... NO
    Groundwater ............ NO
    Flow Routing ........... YES
    Ponding Allowed ........ NO
    Water Quality .......... YES
  Infiltration Method ...... HORTON
  Flow Routing Method ...... DYNWAVE
  Surcharge Method ......... EXTRAN
  Starting Date ............ 08/28/2015 08:00:00
  Ending Date .............. 08/28/2015 15:50:00
  Antecedent Dry Days ...... 8.0
  Report Time Step ......... 00:01:00
  Wet Time Step ............ 00:01:00
  Dry Time Step ............ 00:01:00
  Routing Time Step ........ 5.00 sec
  Variable Time Step ....... YES
  Maximum Trials ........... 8
  Number of Threads ........ 4
  Head Tolerance ........... 0.001500 m
  
  
  **************************        Volume         Depth
  Runoff Quantity Continuity     hectare-m            mm
  **************************     ---------       -------
  Total Precipitation ......         7.641        16.729
  Evaporation Loss .........         0.000         0.000
  Infiltration Loss ........         1.184         2.592
  Surface Runoff ...........         5.481        12.000
  Final Storage ............         0.977         2.139
  Continuity Error (%) .....        -0.016
  
  
  **************************           COD            SS            TN            TP         NH4-N
  Runoff Quality Continuity             kg            kg            kg            kg            kg
  **************************    ----------    ----------    ----------    ----------    ----------
  Initial Buildup ..........     41378.656     70582.865      1804.177       168.684      1032.807
  Surface Buildup ..........        30.344        63.217         2.449         0.220         1.402
  Wet Deposition ...........         0.000         0.000         0.000         0.000         0.000
  Sweeping Removal .........         0.000         0.000         0.000         0.000         0.000
  Infiltration Loss ........       127.934       247.015         2.452         0.174         1.174
  BMP Removal ..............         0.000         0.000         0.000         0.000         0.000
  Surface Runoff ...........      5553.100     10632.121       107.101         7.411        51.076
  Remaining Buildup ........     35725.917     59762.998      1697.031       161.316       981.940
  Continuity Error (%) .....         0.005         0.006         0.002         0.002         0.002
  
  
  **************************        Volume        Volume
  Flow Routing Continuity        hectare-m      10^6 ltr
  **************************     ---------     ---------
  Dry Weather Inflow .......         0.616         6.165
  Wet Weather Inflow .......         5.479        54.793
  Groundwater Inflow .......         0.000         0.000
  RDII Inflow ..............         0.000         0.000
  External Inflow ..........         0.102         1.024
  External Outflow .........         2.020        20.204
  Flooding Loss ............         3.721        37.212
  Evaporation Loss .........         0.000         0.000
  Exfiltration Loss ........         0.000         0.000
  Initial Stored Volume ....         0.076         0.761
  Final Stored Volume ......         0.643         6.431
  Continuity Error (%) .....        -1.762
  
  
  **************************           COD            SS            TN            TP         NH4-N
  Quality Routing Continuity            kg            kg            kg            kg            kg
  **************************    ----------    ----------    ----------    ----------    ----------
  Dry Weather Inflow .......      1541.201      2465.922       147.955        18.494        92.472
  Wet Weather Inflow .......      5552.217     10630.599       107.082         7.410        51.067
  Groundwater Inflow .......         0.000         0.000         0.000         0.000         0.000
  RDII Inflow ..............         0.000         0.000         0.000         0.000         0.000
  External Inflow ..........       183.418       293.469        17.608         2.201        11.005
  External Outflow .........      2490.744      4438.130       140.553        16.170        83.998
  Flooding Loss ............      4053.139      7659.125       103.061         8.945        54.016
  Exfiltration Loss ........         0.000         0.000         0.000         0.000         0.000
  Mass Reacted .............         0.000         0.000         0.000         0.000         0.000
  Initial Stored Mass ......         0.000         0.000         0.000         0.000         0.000
  Final Stored Mass ........       625.967      1116.664        25.642         2.686        14.704
  Continuity Error (%) .....         1.470         1.315         1.243         1.084         1.181
  
  
  *************************
  Highest Continuity Errors
  *************************
  Node HS02004842 (10.96%)
  Node JK-storage (-8.90%)
  Node YS02001884 (7.30%)
  Node HS02004817 (2.13%)
  Node YSB1171 (1.97%)
  
  
  ***************************
  Time-Step Critical Elements
  ***************************
  Link WS02006252WS02006251 (57.46%)
  Link WS02006280WS02006229 (11.16%)
  Link WS02006238WS02006235 (10.69%)
  Link YS02001793JiankangQianchi (5.47%)
  Link WS02004404WS02004405 (2.38%)
  
  
  ********************************
  Highest Flow Instability Indexes
  ********************************
  Link WS02006113WS02006111 (39)
  Link YS02163601YS02164001 (28)
  Link YS02001619YS02001622 (28)
  Link YS02001629YS02163301 (27)
  Link YS02163301YS02001633 (27)
  
  
  *************************
  Routing Time Step Summary
  *************************
  Minimum Time Step           :     0.13 sec
  Average Time Step           :     1.29 sec
  Maximum Time Step           :     5.00 sec
  Percent in Steady State     :    -0.00
  Average Iterations per Step :     3.86
  Percent Not Converging      :    15.17
  
  
  ***************************
  Subcatchment Runoff Summary
  ***************************
  
  ------------------------------------------------------------------------------------------------------------------------------
                            Total      Total      Total      Total     Imperv       Perv      Total       Total     Peak  Runoff
                           Precip      Runon       Evap      Infil     Runoff     Runoff     Runoff      Runoff   Runoff   Coeff
  Subcatchment                 mm         mm         mm         mm         mm         mm         mm    10^6 ltr      LPS
  ------------------------------------------------------------------------------------------------------------------------------
  sub0                      16.73       0.00       0.00       0.71      15.51       0.47      15.98        0.01     3.87   0.955
  sub1                      16.73       0.00       0.00       1.18      14.80       0.66      15.46        0.10    26.74   0.924
  sub2                      16.73       0.00       0.00       4.79      10.46       1.40      11.85        0.11    25.81   0.708
  sub3                      16.73       0.00       0.00       5.01      10.42       1.18      11.60        0.26    56.97   0.693
  sub4                      16.73       0.00       0.00       1.28      14.64       0.56      15.20        0.32    66.74   0.909
  sub5                      16.73       0.00       0.00       0.73      15.46       0.44      15.91        0.18    46.91   0.951
  sub7                      16.73       0.00       0.00       0.93      15.16       0.58      15.74        0.05    14.85   0.941
  sub8                      16.73       0.00       0.00       0.94      15.15       0.57      15.72        0.10    27.42   0.940
  sub9                      16.73       0.00       0.00       0.94      15.15       0.57      15.72        0.08    20.52   0.940
  sub10                     16.73       0.00       0.00       0.83      15.30       0.50      15.81        0.17    46.04   0.945
  sub11                     16.73       0.00       0.00       0.83      15.32       0.51      15.83        0.18    50.62   0.947
  sub12                     16.73       0.00       0.00       1.34      14.51       0.83      15.34        0.13    39.22   0.917
  sub14                     16.73       0.00       0.00       0.94      15.15       0.57      15.72        0.15    40.40   0.939
  sub15                     16.73       0.00       0.00       3.54      11.65       1.48      13.13        0.23    57.86   0.785
  sub16                     16.73       0.00       0.00       3.72      11.17       1.80      12.97        0.14    37.34   0.776
  sub17                     16.73       0.00       0.00       3.62      11.33       1.73      13.07        0.11    30.57   0.781
  sub22                     16.73       0.00       0.00       5.27       9.49       1.92      11.42        0.72   183.11   0.683
  sub23                     16.73       0.00       0.00       4.37      10.50       1.82      12.32        0.59   153.57   0.736
  sub60                     16.73       0.00       0.00       1.74      12.78       0.27      13.05        3.96   446.24   0.780
  sub61                     16.73       0.00       0.00       2.46      12.72       0.38      13.11        4.04   542.53   0.784
  sub62                     16.73       0.00       0.00       1.06      13.91       0.27      14.19        4.36   558.01   0.848
  sub63                     16.73       0.00       0.00       4.39      11.06       0.46      11.52        3.49   496.40   0.689
  sub64                     16.73       0.00       0.00       2.23      12.28       0.28      12.56        3.82   424.95   0.751
  sub65                     16.73       0.00       0.00       1.91      12.51       0.27      12.77        3.93   431.32   0.764
  sub66                     16.73       0.00       0.00       4.54      10.46       0.31      10.78        3.31   388.44   0.644
  sub67                     16.73       0.00       0.00       1.01      14.45       0.32      14.78        4.56   675.76   0.883
  sub68                     16.73       0.00       0.00       1.95      13.33       0.39      13.71        4.22   589.75   0.820
  sub69                     16.73       0.00       0.00       2.00      13.62       0.51      14.12        3.30   542.07   0.844
  sub70                     16.73      14.42       0.00       8.47      19.01       2.12      21.13        4.84   534.50   0.678
  sub71                     16.73       0.00       0.00       1.08      13.65       0.25      13.90        3.28   394.68   0.831
  sub72                     16.73       0.00       0.00       1.02      11.50       0.15      11.65        2.37   206.66   0.697
  1                         16.73      20.58       0.00       1.37      22.38       7.20      29.58        6.95   612.18   0.793
  2                         16.73       0.00       0.00       3.02       4.04       3.18       7.22        2.89   331.58   0.431
  
  
  ****************************
  Subcatchment Washoff Summary
  ****************************
  
  ------------------------------------------------------------------------------------------
                                 COD            SS            TN            TP         NH4-N
  Subcatchment                    kg            kg            kg            kg            kg
  ------------------------------------------------------------------------------------------
  sub0                         3.641         7.161         0.064         0.005         0.031
  sub1                        15.670        31.767         0.296         0.021         0.143
  sub2                        10.304        20.454         0.214         0.015         0.099
  sub3                        25.293        49.815         0.517         0.036         0.240
  sub4                        36.168        74.260         0.714         0.044         0.344
  sub5                        35.763        71.366         0.649         0.050         0.316
  sub7                         7.894        16.212         0.150         0.010         0.073
  sub8                        11.755        24.726         0.234         0.014         0.113
  sub9                        10.113        20.966         0.196         0.013         0.095
  sub10                       29.347        59.341         0.545         0.040         0.265
  sub11                       28.395        58.052         0.536         0.037         0.260
  sub12                       24.463        49.072         0.450         0.034         0.218
  sub14                       21.697        44.543         0.414         0.028         0.200
  sub15                       29.696        58.821         0.572         0.042         0.270
  sub16                       19.246        38.050         0.367         0.028         0.174
  sub17                       17.687        34.653         0.330         0.026         0.156
  sub22                       95.915       186.896         1.820         0.139         0.857
  sub23                       54.382       109.539         1.141         0.076         0.527
  sub60                      353.947       679.509         6.988         0.437         3.357
  sub61                      439.695       840.113         8.188         0.570         3.952
  sub62                      449.790       873.119         8.744         0.564         4.209
  sub63                      328.186       618.356         6.505         0.463         3.037
  sub64                      450.924       835.563         8.299         0.611         3.976
  sub65                      460.537       856.688         8.527         0.617         4.090
  sub66                      259.427       485.147         5.248         0.348         2.463
  sub67                      667.181      1281.068        12.075         0.900         5.853
  sub68                      479.473       924.467         9.153         0.628         4.389
  sub69                      429.286       835.450         8.068         0.576         3.873
  sub70                      758.301      1478.311        15.194         1.074         7.173
  sub71                      296.268       580.620         6.027         0.356         2.890
  sub72                      247.759       452.374         4.612         0.320         2.223
  1                          576.917      1130.968        11.723         0.829         5.484
  2                           65.566       118.435         1.802         0.109         0.773
  ------------------------------------------------------------------------------------------
  System                    6740.687     12945.882       130.363         9.060        62.122
  
  
  ******************
  Node Depth Summary
  ******************
  
  ---------------------------------------------------------------------------------
                                 Average  Maximum  Maximum  Time of Max    Reported
                                   Depth    Depth      HGL   Occurrence   Max Depth
  Node                 Type       Meters   Meters   Meters  days hr:min      Meters
  ---------------------------------------------------------------------------------
  WS02001211           JUNCTION     0.77     0.85     5.69     0  02:04        0.85
  WS02001212           JUNCTION     0.48     0.58     5.64     0  02:05        0.58
  WS02001213           JUNCTION     0.72     0.86     5.62     0  02:03        0.86
  WS02003069           JUNCTION     0.51     0.72     5.31     0  02:03        0.72
  WS02003072           JUNCTION     0.57     0.76     5.14     0  02:04        0.76
  WS02003073           JUNCTION     0.35     0.48     4.55     0  02:04        0.48
  WS02003060           JUNCTION     0.45     0.64     5.57     0  02:03        0.64
  WS02003066           JUNCTION     0.24     0.39     5.94     0  01:58        0.39
  WS02003059           JUNCTION     0.77     0.91     5.60     0  02:03        0.91
  WS02003067           JUNCTION     0.59     0.83     6.15     0  01:57        0.83
  WS02004401           JUNCTION     0.71     1.31     7.31     0  01:55        1.26
  WS02004402           JUNCTION     0.74     1.30     7.26     0  01:55        1.25
  WS02004403           JUNCTION     0.76     1.27     7.20     0  01:55        1.21
  WS02004404           JUNCTION     0.83     1.31     7.16     0  01:55        1.25
  WS02004406           JUNCTION     0.83     1.21     7.04     0  01:55        1.17
  WS02004409           JUNCTION     0.52     0.98     6.75     0  01:57        0.98
  WS02004410           JUNCTION     0.54     0.96     6.68     0  01:57        0.96
  WS02004411           JUNCTION     0.55     0.94     6.62     0  01:58        0.94
  WS02004412           JUNCTION     0.57     0.91     6.55     0  01:57        0.91
  WS02004413           JUNCTION     0.72     1.03     6.50     0  01:57        1.03
  WS02004405           JUNCTION     0.82     1.28     7.13     0  01:55        1.22
  WS02006109           JUNCTION     0.81     1.75     8.37     0  01:56        1.75
  WS02006110           JUNCTION     0.79     1.55     8.13     0  01:55        1.53
  WS02006111           JUNCTION     0.26     1.01     7.72     0  01:55        0.94
  WS02006112           JUNCTION     0.89     1.66     7.54     0  01:55        1.60
  WS02006113           JUNCTION     0.37     1.22     8.11     0  01:55        0.99
  WS02006115           JUNCTION     0.61     1.31     7.45     0  01:55        1.26
  WS02006116           JUNCTION     0.69     1.35     7.39     0  01:55        1.29
  WS02006230           JUNCTION     0.81     1.98     8.72     0  01:56        1.98
  WS02006231           JUNCTION     0.56     1.61     8.73     0  01:56        1.61
  WS02006232           JUNCTION     0.70     1.71     8.74     0  01:56        1.69
  WS02006234           JUNCTION     0.63     1.59     8.75     0  01:56        1.59
  WS02006235           JUNCTION     0.66     1.59     8.76     0  01:55        1.58
  WS02006238           JUNCTION     0.68     1.61     8.76     0  01:56        1.60
  WS02006240           JUNCTION     0.58     1.45     8.74     0  01:56        1.44
  WS02006242           JUNCTION     0.63     1.45     8.72     0  01:56        1.45
  WS02006243           JUNCTION     0.50     1.30     8.72     0  01:56        1.29
  WS02006245           JUNCTION     0.47     1.24     8.72     0  01:53        1.21
  WS02006247           JUNCTION     0.48     1.22     8.72     0  01:53        1.19
  WS02006248           JUNCTION     0.42     1.10     8.69     0  01:53        1.10
  WS02006249           JUNCTION     0.44     1.09     8.69     0  01:53        1.09
  WS02006239           JUNCTION     0.64     1.53     8.74     0  01:56        1.53
  WS02006251           JUNCTION     0.41     1.33     9.00     0  01:54        1.15
  WS02006252           JUNCTION     0.27     0.84     9.08     0  07:22        0.70
  WS02006253           JUNCTION     0.44     1.52     9.16     0  01:54        1.18
  WS02006256           JUNCTION     1.72     2.35     9.28     0  00:38        2.35
  WS02004138           JUNCTION     0.19     0.20     7.45     0  00:00        0.19
  WS02004139           JUNCTION     0.72     0.79     5.70     0  02:05        0.79
  WS02004407           JUNCTION     0.23     0.40     6.72     0  01:56        0.40
  WS02006228           JUNCTION     0.83     1.94     8.59     0  01:56        1.93
  WS02006229           JUNCTION     0.81     2.02     8.71     0  01:56        2.01
  WS02006280           JUNCTION     0.08     0.34     8.61     0  01:55        0.32
  WS02006284           JUNCTION     0.38     0.66     9.06     0  01:54        0.66
  WS02006287           JUNCTION     0.11     0.40     9.36     0  01:54        0.40
  WSF200               JUNCTION     0.23     0.44     5.67     0  01:58        0.44
  HS02004901           JUNCTION     0.14     0.38    10.21     0  01:53        0.38
  HS02004881           JUNCTION     0.01     0.06     9.08     0  01:54        0.05
  HS02004876           JUNCTION     0.05     0.17     9.20     0  01:54        0.17
  HS02004870           JUNCTION     0.02     0.10     9.38     0  01:54        0.10
  HS02004862           JUNCTION     0.02     0.11     9.50     0  01:55        0.11
  HS02004856           JUNCTION     0.08     0.15     9.58     0  01:54        0.15
  HS02004852           JUNCTION     0.01     0.08     9.59     0  01:54        0.08
  HS02004848           JUNCTION     0.01     0.07     9.67     0  01:54        0.07
  HS02004842           JUNCTION     0.34     0.40     9.67     0  01:54        0.40
  HS02004837           JUNCTION     0.03     0.09     9.67     0  01:54        0.09
  HS02004830           JUNCTION     0.04     0.11     9.58     0  01:55        0.11
  HS02004824           JUNCTION     0.03     0.15     9.55     0  01:54        0.15
  HS02004817           JUNCTION     0.45     0.71     9.56     0  01:54        0.71
  HS02004807           JUNCTION     0.14     0.38     9.55     0  01:55        0.38
  HS02004802           JUNCTION     0.17     0.41     9.54     0  01:55        0.41
  HS02004799           JUNCTION     0.14     0.48     9.69     0  01:53        0.48
  HS02004792           JUNCTION     0.04     0.22     9.75     0  01:53        0.22
  HS02004788           JUNCTION     0.03     0.16    10.06     0  01:54        0.16
  HS02004785           JUNCTION     0.06     0.25    10.15     0  01:53        0.25
  HS02004777           JUNCTION     0.16     0.40    10.20     0  01:53        0.40
  HS02004770           JUNCTION     0.13     0.37    10.21     0  01:53        0.37
  HS02004480           JUNCTION     0.10     0.39     9.64     0  01:53        0.39
  HS02004479           JUNCTION     0.13     0.43     9.64     0  01:53        0.43
  HS02004478           JUNCTION     0.07     0.29     9.52     0  01:54        0.29
  YS02001745           JUNCTION     0.78     0.97     8.49     0  02:52        0.97
  YS02001748           JUNCTION     1.18     1.41     8.49     0  02:47        1.40
  YS02001751           JUNCTION     1.37     1.60     8.48     0  02:58        1.59
  YS02001754           JUNCTION     1.62     1.87     8.47     0  02:47        1.85
  YS02001762           JUNCTION     1.82     2.06     8.46     0  02:47        2.05
  YS02001765           JUNCTION     1.77     2.01     8.46     0  02:58        2.00
  YS02001767           JUNCTION     1.73     1.96     8.45     0  02:58        1.95
  YS02001770           JUNCTION     1.73     1.94     8.43     0  02:47        1.94
  YS02001774           JUNCTION     1.79     1.99     8.41     0  02:57        1.99
  YS02001779           JUNCTION     1.53     1.68     8.37     0  01:50        1.68
  YS02001882           JUNCTION     0.66     1.67     8.38     0  01:50        1.63
  YS02001884           JUNCTION     0.75     1.76     8.38     0  01:50        1.73
  YS02001759           JUNCTION     1.85     2.10     8.46     0  02:46        2.09
  YS02001887           JUNCTION     0.83     1.82     8.36     0  01:50        1.81
  YS02001890           JUNCTION     0.86     1.81     8.32     0  01:50        1.81
  YS02001898           JUNCTION     0.62     1.57     8.30     0  01:51        1.56
  YS02001901           JUNCTION     0.74     1.68     8.29     0  02:15        1.67
  YS02001904           JUNCTION     0.72     1.64     8.27     0  02:14        1.63
  YS02001907           JUNCTION     1.05     1.96     8.25     0  01:51        1.96
  YS02001910           JUNCTION     0.84     1.95     8.46     0  01:51        1.81
  YS02001915           JUNCTION     0.64     1.89     8.61     0  01:51        1.66
  YS02001918           JUNCTION     0.39     1.80     8.87     0  01:51        1.42
  YS02001619           JUNCTION     1.32     1.57     8.50     0  01:45        1.49
  YS02001629           JUNCTION     1.67     1.85     8.40     0  07:50        1.85
  YS02001641           JUNCTION     1.77     1.96     8.40     0  07:50        1.96
  YS02001644           JUNCTION     1.77     1.92     8.35     0  01:48        1.92
  YS02001652           JUNCTION     1.63     1.93     8.52     0  04:07        1.87
  YS02001655           JUNCTION     1.39     1.76     8.61     0  04:07        1.65
  YS02001920           JUNCTION     0.49     1.95     8.95     0  01:51        1.53
  YS02001923           JUNCTION     0.32     2.03     9.29     0  01:51        1.34
  YS02001926           JUNCTION     0.35     1.66     9.11     0  01:51        1.19
  YS02001929           JUNCTION     0.22     1.02     8.72     0  01:51        1.00
  YS02001658           JUNCTION     1.12     1.56     8.70     0  04:07        1.38
  YS02001661           JUNCTION     0.89     1.40     8.80     0  01:58        1.22
  YS02001664           JUNCTION     0.40     0.57     8.49     0  04:07        0.56
  YS02001622           JUNCTION     1.34     1.57     8.47     0  01:45        1.51
  YS02001633           JUNCTION     1.76     2.00     8.45     0  07:50        2.00
  YS02001649           JUNCTION     1.82     2.05     8.44     0  02:45        2.05
  YS02001757           JUNCTION     1.95     2.20     8.46     0  02:58        2.19
  YS02001895           JUNCTION     0.62     1.57     8.31     0  01:51        1.56
  YS02001625           JUNCTION     1.62     1.78     8.38     0  01:45        1.78
  YS02163301           JUNCTION     1.70     1.92     8.44     0  07:50        1.92
  YS02163601           JUNCTION     1.81     2.04     8.44     0  07:50        2.04
  YS02164001           JUNCTION     1.75     1.97     8.43     0  07:50        1.97
  YS02001647           JUNCTION     1.61     1.80     8.41     0  04:07        1.79
  YSB1154              JUNCTION     0.27     0.58     9.64     0  01:53        0.58
  YSB6556              JUNCTION     0.16     0.47     9.64     0  01:53        0.47
  YSB1174              JUNCTION     0.22     0.53     9.64     0  01:53        0.53
  YSB1171              JUNCTION     0.42     0.74     9.64     0  01:53        0.74
  YS02006553           JUNCTION     1.05     1.97     8.25     0  02:03        1.97
  YS02006561           JUNCTION     0.39     1.09     7.75     0  02:00        1.08
  YS02006556           JUNCTION     1.01     1.94     8.25     0  02:13        1.93
  YS02006558           JUNCTION     1.06     1.98     8.24     0  02:12        1.98
  YS02001783           JUNCTION     0.62     1.64     7.78     0  01:44        1.47
  YS02001784           JUNCTION     0.64     1.47     7.54     0  01:44        1.41
  YS02001786           JUNCTION     0.57     1.45     7.48     0  01:44        1.26
  YS02001788           JUNCTION     0.49     1.39     7.37     0  01:44        1.13
  YS02001790           JUNCTION     0.62     1.78     7.43     0  01:44        1.29
  YS02001791           JUNCTION     0.60     2.17     7.64     0  06:06        1.41
  YS02001793           JUNCTION     0.85     2.05     6.88     0  06:06        1.82
  WSC                  OUTFALL      0.35     0.48     1.15     0  02:05        0.48
  JK-storage           STORAGE      3.33     5.80     6.60     0  01:44        5.80
  CC-storage           STORAGE      1.20     1.46     8.46     0  02:50        1.46
  XR-storage           STORAGE      7.04     7.72     5.72     0  02:07        7.72
  
  
  *******************
  Node Inflow Summary
  *******************
  
  -------------------------------------------------------------------------------------------------
                                  Maximum  Maximum                  Lateral       Total        Flow
                                  Lateral    Total  Time of Max      Inflow      Inflow     Balance
                                   Inflow   Inflow   Occurrence      Volume      Volume       Error
  Node                 Type           LPS      LPS  days hr:min    10^6 ltr    10^6 ltr     Percent
  -------------------------------------------------------------------------------------------------
  WS02001211           JUNCTION      7.35   389.85     0  02:45       0.207        10.3       0.391
  WS02001212           JUNCTION      0.00   392.34     0  02:45           0        10.3       0.240
  WS02001213           JUNCTION      0.00   394.44     0  02:45           0        10.2       0.274
  WS02003069           JUNCTION      0.32  1338.94     0  02:03     0.00902        20.3       0.168
  WS02003072           JUNCTION      0.00  1338.93     0  02:04           0        20.2       0.203
  WS02003073           JUNCTION      1.82  1341.03     0  02:04      0.0514        20.3       0.237
  WS02003060           JUNCTION     16.53  1338.28     0  02:03       0.466        20.3       0.158
  WS02003066           JUNCTION      0.00   954.69     0  01:58           0        9.66       0.043
  WS02003059           JUNCTION      0.00   397.21     0  02:44           0        10.2       0.394
  WS02003067           JUNCTION      0.00   954.05     0  01:58           0        9.67       0.091
  WS02004401           JUNCTION      0.00   967.97     0  01:56           0        9.88       0.178
  WS02004402           JUNCTION      0.00   968.75     0  01:56           0        9.86       0.173
  WS02004403           JUNCTION      0.00   969.00     0  01:56           0        9.84       0.160
  WS02004404           JUNCTION      0.16   969.64     0  01:56     0.00457        9.83       0.124
  WS02004406           JUNCTION      0.00   970.20     0  01:56           0         9.8       0.303
  WS02004409           JUNCTION      0.00   968.45     0  01:56           0        9.77       0.142
  WS02004410           JUNCTION      0.00   957.31     0  01:57           0        9.75       0.166
  WS02004411           JUNCTION      0.00   952.52     0  01:58           0        9.74       0.175
  WS02004412           JUNCTION      0.00   954.08     0  01:58           0        9.72       0.193
  WS02004413           JUNCTION      0.00   953.99     0  01:58           0         9.7       0.294
  WS02004405           JUNCTION      0.04   970.52     0  01:56     0.00107        9.82       0.186
  WS02006109           JUNCTION      1.23   938.56     0  01:56      0.0347        9.85       0.142
  WS02006110           JUNCTION      0.00   938.41     0  01:56           0        9.84       0.147
  WS02006111           JUNCTION      0.00   938.13     0  01:56           0        9.82       0.016
  WS02006112           JUNCTION     30.57   967.24     0  01:56       0.112        9.93       0.257
  WS02006113           JUNCTION      0.00   938.55     0  01:56           0        9.83       0.062
  WS02006115           JUNCTION      0.00   967.43     0  01:56           0        9.91       0.154
  WS02006116           JUNCTION      0.00   967.88     0  01:56           0        9.89       0.132
  WS02006230           JUNCTION     10.28   533.61     0  07:23        0.29        6.75       0.116
  WS02006231           JUNCTION      0.00   523.45     0  07:23           0        6.46       0.016
  WS02006232           JUNCTION      0.00   523.43     0  07:23           0        6.46       0.133
  WS02006234           JUNCTION      0.00   523.47     0  07:23           0        6.46       0.002
  WS02006235           JUNCTION      0.00   523.95     0  07:24           0        6.53       0.089
  WS02006238           JUNCTION      0.00   418.85     0  07:30           0        2.98       0.003
  WS02006240           JUNCTION      0.00   417.14     0  07:30           0        2.94       0.093
  WS02006242           JUNCTION      0.00   416.72     0  07:30           0        2.92       0.136
  WS02006243           JUNCTION      0.00   416.37     0  07:30           0         2.9      -0.134
  WS02006245           JUNCTION      0.00   415.80     0  07:30           0        2.88       0.127
  WS02006247           JUNCTION      0.00   415.86     0  07:30           0        2.88       0.036
  WS02006248           JUNCTION      0.00   416.07     0  07:30           0        2.88      -0.080
  WS02006249           JUNCTION      0.00   465.02     0  02:30           0        3.15       0.092
  WS02006239           JUNCTION      0.00   418.33     0  07:30           0        2.96      -0.125
  WS02006251           JUNCTION      0.08   464.12     0  02:30     0.00217        3.19      -0.026
  WS02006252           JUNCTION      0.00   400.00     0  07:20           0        2.52       0.006
  WS02006253           JUNCTION      3.87   191.72     0  01:54      0.0129       0.661      -0.064
  WS02006256           JUNCTION      0.00   983.00     0  02:00           0        11.4       0.012
  WS02004138           JUNCTION      0.00   380.00     0  00:00           0        10.1       0.065
  WS02004139           JUNCTION      0.32   394.45     0  00:00     0.00905        10.1       0.449
  WS02004407           JUNCTION      0.00   970.30     0  01:56           0        9.77       0.058
  WS02006228           JUNCTION      0.00   937.25     0  01:56           0        9.83       0.101
  WS02006229           JUNCTION      0.00   988.33     0  01:55           0        9.85       0.116
  WS02006280           JUNCTION      0.00   736.09     0  01:54           0        3.11       0.015
  WS02006284           JUNCTION      0.10   735.83     0  01:54      0.0027        3.11       0.019
  WS02006287           JUNCTION      0.00   735.63     0  01:54           0        3.11       0.023
  WSF200               JUNCTION      0.00   955.17     0  01:58           0        9.66       0.038
  HS02004901           JUNCTION     37.34    37.34     0  01:51       0.136       0.136       1.311
  HS02004881           JUNCTION     14.85   153.29     0  01:54       0.053       0.601       0.088
  HS02004876           JUNCTION     26.74   139.06     0  01:54       0.103       0.549       0.099
  HS02004870           JUNCTION     27.42   112.65     0  01:54         0.1       0.446       0.025
  HS02004862           JUNCTION     26.01    86.18     0  01:54       0.116       0.346       0.050
  HS02004856           JUNCTION     20.52    60.23     0  01:54      0.0756       0.231       0.627
  HS02004852           JUNCTION      0.00    40.37     0  01:54           0       0.155       0.036
  HS02004848           JUNCTION     56.97    56.97     0  01:56       0.261       0.261       0.019
  HS02004842           JUNCTION      0.00    18.18     0  02:06           0       0.119      12.306
  HS02004837           JUNCTION     52.39    67.87     0  01:54       0.353       0.459       0.177
  HS02004830           JUNCTION      0.15    67.98     0  01:54     0.00423       0.449       0.275
  HS02004824           JUNCTION     66.79   134.68     0  01:56       0.318       0.767       0.071
  HS02004817           JUNCTION      0.60   136.97     0  01:57      0.0169       0.783       2.175
  HS02004807           JUNCTION     50.62   184.33     0  01:55       0.184       0.952       0.460
  HS02004802           JUNCTION      0.00   183.91     0  01:56           0        0.95       0.415
  HS02004799           JUNCTION     40.40   470.74     0  01:53        0.15        1.87       0.159
  HS02004792           JUNCTION    183.39   430.97     0  01:53       0.729        1.72       0.024
  HS02004788           JUNCTION     59.53   248.79     0  01:53       0.273       0.991       0.039
  HS02004785           JUNCTION      0.15   189.55     0  01:53     0.00423        0.72       0.070
  HS02004777           JUNCTION      0.03   189.70     0  01:52    0.000846        0.72       0.728
  HS02004770           JUNCTION    153.57   190.37     0  01:52       0.587       0.722       0.429
  HS02004480           JUNCTION      0.00   554.33     0  01:53           0        2.18       0.044
  HS02004479           JUNCTION      0.00    83.75     0  01:53           0       0.323       0.229
  HS02004478           JUNCTION      0.00   735.58     0  01:54           0        3.11       0.010
  YS02001745           JUNCTION    446.25   446.25     0  02:16        3.95        3.95       0.283
  YS02001748           JUNCTION      0.04   450.84     0  02:16     0.00127        3.94       0.591
  YS02001751           JUNCTION      0.01   450.68     0  02:16     0.00031        3.92       0.609
  YS02001754           JUNCTION      0.26   451.03     0  02:16     0.00733        3.91       0.635
  YS02001762           JUNCTION      0.00   433.79     0  01:55           0        2.39       0.896
  YS02001765           JUNCTION      0.00   434.31     0  01:55           0        2.39       1.023
  YS02001767           JUNCTION      0.54   434.36     0  01:55      0.0151        2.41       1.500
  YS02001770           JUNCTION    558.16   763.77     0  02:53        4.36        5.55       0.566
  YS02001774           JUNCTION      0.00   763.78     0  02:53           0         4.3       0.585
  YS02001779           JUNCTION      0.01   763.78     0  02:53    0.000141        4.27       0.368
  YS02001882           JUNCTION      0.00    62.62     0  01:48           0       0.043       4.494
  YS02001884           JUNCTION      0.00    74.36     0  01:46           0      0.0828       7.878
  YS02001759           JUNCTION    542.57   877.59     0  01:56        4.04        5.22       0.440
  YS02001887           JUNCTION    676.21   677.37     0  02:13        4.57        4.61       0.186
  YS02001890           JUNCTION      0.00   677.44     0  02:11           0        4.56       0.198
  YS02001898           JUNCTION      0.00   521.73     0  01:51           0        4.28       0.076
  YS02001901           JUNCTION      0.00   522.32     0  01:51           0        4.27       0.144
  YS02001904           JUNCTION      0.00   522.74     0  01:51           0        4.27       0.127
  YS02001907           JUNCTION      0.00  1175.67     0  01:52           0        9.99       0.238
  YS02001910           JUNCTION      0.00   661.35     0  01:52           0        5.74       0.223
  YS02001915           JUNCTION    394.70   660.89     0  01:52        3.28        5.79       0.088
  YS02001918           JUNCTION      0.00   380.91     0  01:52           0        2.54       0.053
  YS02001619           JUNCTION    388.44   388.44     0  02:16         3.3         3.3       0.371
  YS02001629           JUNCTION      0.00   220.75     0  01:48           0        1.43       2.047
  YS02001641           JUNCTION      0.00   456.25     0  01:48           0        5.09       0.410
  YS02001644           JUNCTION    424.99  1607.28     0  02:58        3.82          15       0.178
  YS02001652           JUNCTION      0.00   518.11     0  02:09           0        3.44       0.674
  YS02001655           JUNCTION      0.15   516.69     0  02:09     0.00434        3.46       0.730
  YS02001920           JUNCTION      2.87   379.89     0  01:52      0.0809        2.52       0.111
  YS02001923           JUNCTION      0.04   316.75     0  01:53     0.00106        2.42       0.046
  YS02001926           JUNCTION      0.05   334.63     0  01:50     0.00147        2.39       0.111
  YS02001929           JUNCTION    206.66   206.66     0  03:01        2.37        2.38       0.028
  YS02001658           JUNCTION      0.00   515.21     0  02:09           0        3.48       0.703
  YS02001661           JUNCTION      0.00   768.34     0  01:57           0        3.71      -0.044
  YS02001664           JUNCTION    496.40   496.40     0  02:16        3.49        3.72       0.153
  YS02001622           JUNCTION      0.00   389.42     0  02:16           0        3.29       0.970
  YS02001633           JUNCTION    431.52   457.69     0  01:48        3.93        5.24       0.615
  YS02001649           JUNCTION      0.00  1002.07     0  01:49           0        8.25       0.451
  YS02001757           JUNCTION      0.00  2145.53     0  01:55           0        10.2       0.904
  YS02001895           JUNCTION      0.00   521.40     0  01:51           0        4.27       0.111
  YS02001625           JUNCTION      0.00   437.34     0  02:15           0        3.34       1.182
  YS02163301           JUNCTION      0.00   221.48     0  01:46           0        1.42       1.702
  YS02163601           JUNCTION      0.11   457.61     0  01:48      0.0031        5.11       0.590
  YS02164001           JUNCTION      0.00   457.19     0  01:48           0        5.09       0.396
  YS02001647           JUNCTION      0.00   846.72     0  02:58           0         7.4       0.384
  YSB1154              JUNCTION     46.91    46.91     0  01:52        0.18       0.181       0.806
  YSB6556              JUNCTION      0.00    46.63     0  01:53           0       0.182       0.696
  YSB1174              JUNCTION     39.22    39.22     0  01:50       0.134       0.134       0.963
  YSB1171              JUNCTION      0.00    84.01     0  01:52           0       0.322       2.011
  YS02006553           JUNCTION      0.00   718.67     0  03:35           0        7.29       0.208
  YS02006561           JUNCTION      0.00   982.76     0  02:15           0        11.5       0.005
  YS02006556           JUNCTION      0.00   718.75     0  03:35           0        7.29       0.144
  YS02006558           JUNCTION    590.63   983.83     0  02:15        4.24        11.5       0.041
  YS02001783           JUNCTION      0.00   982.96     0  02:15           0        11.5       0.019
  YS02001784           JUNCTION      1.06   983.84     0  02:15      0.0299        11.5       0.031
  YS02001786           JUNCTION      0.06   983.98     0  02:15     0.00159        11.5       0.029
  YS02001788           JUNCTION      0.07   983.81     0  02:15       0.002        11.5       0.017
  YS02001790           JUNCTION      0.15   983.95     0  02:15     0.00437        11.5       0.012
  YS02001791           JUNCTION      0.00   983.90     0  02:15           0        11.5      -0.000
  YS02001793           JUNCTION      0.00   984.11     0  02:09           0        11.5      -0.032
  WSC                  OUTFALL       0.00  1341.39     0  02:05           0        20.2       0.000
  JK-storage           STORAGE       0.00   984.86     0  02:15           0        11.7      -8.173
  CC-storage           STORAGE       0.00  2147.78     0  01:55           0         6.5       0.993
  XR-storage           STORAGE    1054.62  1054.62     0  03:01        15.5        16.1      -0.001
  
  
  **********************
  Node Surcharge Summary
  **********************
  
  Surcharging occurs when water rises above the top of the highest conduit.
  ---------------------------------------------------------------------
                                               Max. Height   Min. Depth
                                   Hours       Above Crown    Below Rim
  Node                 Type      Surcharged         Meters       Meters
  ---------------------------------------------------------------------
  WS02004401           JUNCTION        0.81          0.307        1.353
  WS02004402           JUNCTION        0.83          0.295        1.445
  WS02004403           JUNCTION        0.84          0.271        1.759
  WS02004404           JUNCTION        1.24          0.311        2.469
  WS02004406           JUNCTION        1.06          0.205        2.245
  WS02004413           JUNCTION        0.41          0.031        2.169
  WS02004405           JUNCTION        1.14          0.279        2.521
  WS02006109           JUNCTION        3.18          0.933        0.887
  WS02006110           JUNCTION        1.74          0.636        1.214
  WS02006111           JUNCTION        0.29          0.202        1.668
  WS02006112           JUNCTION        1.94          0.658        1.022
  WS02006113           JUNCTION        0.34          0.420        1.510
  WS02006115           JUNCTION        0.71          0.305        1.945
  WS02006116           JUNCTION        0.75          0.288        2.002
  WS02006230           JUNCTION        1.39          0.898        0.672
  WS02006231           JUNCTION        1.73          0.902        0.628
  WS02006232           JUNCTION        3.05          1.006        0.474
  WS02006234           JUNCTION        2.24          0.871        0.369
  WS02006235           JUNCTION        2.55          0.882        0.408
  WS02006238           JUNCTION        2.63          0.892        0.538
  WS02006240           JUNCTION        1.85          0.739        0.651
  WS02006242           JUNCTION        1.99          0.721        0.099
  WS02006243           JUNCTION        1.52          0.589        0.181
  WS02006245           JUNCTION        1.40          0.527        0.323
  WS02006247           JUNCTION        1.40          0.510        0.250
  WS02006248           JUNCTION        1.25          0.380        0.000
  WS02006249           JUNCTION        1.28          0.390        0.000
  WS02006239           JUNCTION        2.18          0.793        0.497
  WS02006251           JUNCTION        0.66          0.305        0.875
  WS02006252           JUNCTION        1.57          0.439        0.661
  WS02006253           JUNCTION        0.88          0.478        2.002
  WS02006256           JUNCTION        7.05          2.050        0.000
  WS02006228           JUNCTION        3.05          1.107        1.093
  HS02004817           JUNCTION        0.14          0.011        1.729
  YS02001748           JUNCTION        6.04          0.328        0.862
  YS02001751           JUNCTION        6.09          0.601        0.599
  YS02001754           JUNCTION        6.14          0.816        0.334
  YS02001762           JUNCTION        6.19          1.056        0.094
  YS02001765           JUNCTION        6.18          1.005        0.095
  YS02001767           JUNCTION        6.18          0.959        0.071
  YS02001770           JUNCTION        6.18          0.909        0.011
  YS02001774           JUNCTION        6.19          0.992        0.058
  YS02001779           JUNCTION        6.13          0.680        0.000
  YS02001882           JUNCTION        1.81          0.666        0.164
  YS02001884           JUNCTION        1.83          0.698        0.172
  YS02001759           JUNCTION        6.20          1.096        0.114
  YS02001887           JUNCTION        1.88          0.770        0.180
  YS02001890           JUNCTION        1.90          0.760        0.000
  YS02001898           JUNCTION        1.78          0.537        0.203
  YS02001901           JUNCTION        1.86          0.680        0.190
  YS02001904           JUNCTION        1.84          0.640        0.210
  YS02001907           JUNCTION        2.37          0.950        0.000
  YS02001910           JUNCTION        1.93          0.952        0.148
  YS02001915           JUNCTION        1.80          0.889        0.111
  YS02001918           JUNCTION        1.66          0.804        0.006
  YS02001619           JUNCTION        6.09          0.569        0.041
  YS02001629           JUNCTION        6.09          0.470        0.000
  YS02001641           JUNCTION        6.18          0.965        0.135
  YS02001644           JUNCTION        6.19          0.920        0.000
  YS02001652           JUNCTION        6.15          0.895        0.235
  YS02001655           JUNCTION        6.10          0.761        0.439
  YS02001920           JUNCTION        1.69          0.946        0.194
  YS02001923           JUNCTION        0.01          0.820        0.000
  YS02001926           JUNCTION        0.01          0.664        0.236
  YS02001929           JUNCTION        0.01          0.022        0.758
  YS02001658           JUNCTION        6.05          0.562        0.738
  YS02001661           JUNCTION        0.10          0.330        1.060
  YS02001622           JUNCTION        6.10          0.566        0.054
  YS02001633           JUNCTION        6.17          0.976        0.084
  YS02001649           JUNCTION        6.19          1.050        0.000
  YS02001757           JUNCTION        6.23          1.200        0.010
  YS02001895           JUNCTION        1.79          0.567        0.183
  YS02001625           JUNCTION        6.15          0.780        0.000
  YS02163301           JUNCTION        6.17          0.922        0.108
  YS02163601           JUNCTION        6.20          1.042        0.038
  YS02164001           JUNCTION        6.17          0.970        0.130
  YS02001647           JUNCTION        6.15          0.798        0.102
  YS02006553           JUNCTION        2.45          0.970        0.220
  YS02006561           JUNCTION        1.70          0.290        0.860
  YS02006556           JUNCTION        2.10          0.895        0.455
  YS02006558           JUNCTION        2.08          0.877        0.523
  YS02001783           JUNCTION        1.94          0.838        0.762
  YS02001784           JUNCTION        1.92          0.674        0.816
  YS02001786           JUNCTION        1.87          0.651        0.779
  YS02001788           JUNCTION        1.82          0.591        0.889
  YS02001790           JUNCTION        2.72          0.980        0.177
  YS02001791           JUNCTION        2.81          1.375        0.545
  YS02001793           JUNCTION        3.06          1.046        1.554
  
  
  *********************
  Node Flooding Summary
  *********************
  
  Flooding refers to all water that overflows a node, whether it ponds or not.
  --------------------------------------------------------------------------
                                                             Total   Maximum
                                 Maximum   Time of Max       Flood    Ponded
                        Hours       Rate    Occurrence      Volume     Depth
  Node                 Flooded       LPS   days hr:min    10^6 ltr    Meters
  --------------------------------------------------------------------------
  WS02006248              0.16     58.69      0  01:57       0.013     0.000
  WS02006249              0.85    220.17      0  02:30       0.270     0.000
  WS02006256              4.22    829.25      0  02:00       7.814     0.000
  YS02001779              3.77    763.78      0  02:53       4.252     0.000
  YS02001890              0.81    161.26      0  02:12       0.274     0.000
  YS02001907              1.53    714.59      0  02:15       2.682     0.000
  YS02001629              0.01      2.08      0  07:50       0.000     0.000
  YS02001644              5.30   1607.14      0  02:58      13.678     0.000
  YS02001923              0.01    100.82      0  01:51       0.000     0.000
  YS02001649              0.20     59.85      0  02:53       0.024     0.000
  YS02001625              2.14    437.00      0  02:15       1.967     0.000
  JK-storage              0.89    863.28      0  01:49       1.141     0.000
  XR-storage              4.67    674.59      0  03:01       5.098     0.000
  
  
  **********************
  Storage Volume Summary
  **********************
  
  --------------------------------------------------------------------------------------------------
                         Average     Avg  Evap Exfil       Maximum     Max    Time of Max    Maximum
                          Volume    Pcnt  Pcnt  Pcnt        Volume    Pcnt     Occurrence    Outflow
  Storage Unit           1000 m3    Full  Loss  Loss       1000 m3    Full    days hr:min        LPS
  --------------------------------------------------------------------------------------------------
  JK-storage               0.167      57     0     0         0.291     100       0  01:44     983.00
  CC-storage               3.355      21     0     0         4.066      26       0  02:50     400.00
  XR-storage               0.845      91     0     0         0.926     100       0  02:07     380.00
  
  
  ***********************
  Outfall Loading Summary
  ***********************
  
  ---------------------------------------------------------------------------------------------------------------------------------
                         Flow       Avg       Max       Total         Total         Total         Total         Total         Total
                         Freq      Flow      Flow      Volume           COD            SS            TN            TP         NH4-N
  Outfall Node           Pcnt       LPS       LPS    10^6 ltr            kg            kg            kg            kg            kg
  ---------------------------------------------------------------------------------------------------------------------------------
  WSC                  100.00    763.03   1341.39      20.204      2490.930      4438.438       140.570        16.172        84.009
  ---------------------------------------------------------------------------------------------------------------------------------
  System               100.00    763.03   1341.39      20.204      2490.930      4438.438       140.570        16.172        84.009
  
  
  ********************
  Link Flow Summary
  ********************
  
  -----------------------------------------------------------------------------
                                 Maximum  Time of Max   Maximum    Max/    Max/
                                  |Flow|   Occurrence   |Veloc|    Full    Full
  Link                 Type          LPS  days hr:min     m/sec    Flow   Depth
  -----------------------------------------------------------------------------
  WS02003066WSF200     CONDUIT    955.17     0  01:58      3.01    0.16    0.32
  WS02006287WS02006284 CONDUIT    735.73     0  01:54      2.45    0.34    0.41
  WS02006284WS02006280 CONDUIT    736.09     0  01:54      2.68    0.31    0.38
  WS02006280WS02006229 CONDUIT    757.14     0  01:55      4.30    0.16    0.58
  WS02006229WS02006228 CONDUIT    937.25     0  01:56      1.86    3.10    1.00
  WS02006256WS02006235 CONDUIT    259.48     0  00:38      3.67    2.75    1.00
  WS02006253WS02006251 CONDUIT    193.01     0  01:54      0.76    0.58    1.00
  WS02006252WS02006251 CONDUIT    404.51     0  07:22      3.22    1.48    1.00
  WS02006251WS02006249 CONDUIT    465.02     0  02:30      1.21    1.34    1.00
  WS02006249WS02006248 CONDUIT    416.07     0  07:30      1.14    2.28    1.00
  WS02006248WS02006247 CONDUIT    415.86     0  07:30      1.11    0.91    1.00
  WS02006247WS02006245 CONDUIT    415.80     0  07:30      1.09    3.30    1.00
  WS02006245WS02006243 CONDUIT    416.37     0  07:30      1.11    1.23    1.00
  WS02006243WS02006242 CONDUIT    416.72     0  07:30      1.08    0.89    1.00
  WS02006242WS02006240 CONDUIT    417.14     0  07:30      1.08    1.66    1.00
  WS02006240WS02006239 CONDUIT    418.33     0  07:30      1.09    1.32    1.00
  WS02006239WS02006238 CONDUIT    418.85     0  07:30      1.09    1.34    1.00
  WS02006238WS02006235 CONDUIT    420.70     0  07:30      1.09    0.94    1.00
  WS02006235WS02006234 CONDUIT    523.47     0  07:23      1.36    5.52    1.00
  WS02006234WS02006232 CONDUIT    523.43     0  07:23      1.36    1.06    1.00
  WS02006232WS02006231 CONDUIT    523.45     0  07:23      1.36    1.10    1.00
  WS02006231WS02006230 CONDUIT    523.33     0  07:23      1.36    7.94    1.00
  WS02006230WS02006229 CONDUIT    533.64     0  07:23      1.39   11.88    1.00
  WS02006228WS02006109 CONDUIT    937.33     0  01:56      1.86    4.10    1.00
  WS02006116WS02004401 CONDUIT    967.97     0  01:56      1.23    1.33    1.00
  WS02006115WS02006116 CONDUIT    967.88     0  01:56      1.23    1.24    1.00
  WS02006113WS02006111 CONDUIT    938.13     0  01:56      2.60    1.12    1.00
  WS02006112WS02006115 CONDUIT    967.43     0  01:56      1.23    0.57    1.00
  WS02006111WS02006112 CONDUIT    938.45     0  01:56      1.87    0.45    1.00
  WS02006110WS02006113 CONDUIT    938.55     0  01:56      1.87    0.85    1.00
  WS02006109WS02006110 CONDUIT    938.41     0  01:56      1.87    1.80    1.00
  WS02004411WS02004412 CONDUIT    954.08     0  01:58      1.26    1.36    0.93
  WS02004401WS02004402 CONDUIT    968.75     0  01:56      1.23    1.16    1.00
  WS02004413WS02003067 CONDUIT    954.05     0  01:58      1.57    0.41    0.72
  WS02004412WS02004413 CONDUIT    953.99     0  01:58      1.23    0.64    0.96
  WS02004410WS02004411 CONDUIT    952.52     0  01:58      1.24    1.30    0.95
  WS02004409WS02004410 CONDUIT    957.31     0  01:57      1.24    1.24    0.97
  WS02004407WS02004409 CONDUIT    968.45     0  01:56      1.73    0.34    0.69
  WS02004406WS02004407 CONDUIT    970.30     0  01:56      1.65    0.43    0.70
  WS02004405WS02004406 CONDUIT    970.20     0  01:56      1.24    1.91    1.00
  WS02004404WS02004405 CONDUIT    970.49     0  01:56      1.24    9.51    1.00
  WS02004403WS02004404 CONDUIT    969.48     0  01:56      1.23    0.70    1.00
  WS02004402WS02004403 CONDUIT    969.00     0  01:56      1.23    1.39    1.00
  WS02004139WS02001211 CONDUIT    382.50     0  02:45      0.90    0.48    0.64
  WS02004138WS02004139 CONDUIT    394.13     0  00:00      3.62    0.08    0.47
  WS02003067WS02003066 CONDUIT    954.69     0  01:58      1.66    0.31    0.51
  WS02001213WS02003059 CONDUIT    397.21     0  02:44      0.89    0.66    0.87
  WS02001212WS02001213 CONDUIT    394.44     0  02:45      1.32    0.61    0.56
  WS02001211WS02001212 CONDUIT    392.34     0  02:45      0.78    0.30    0.71
  WS02003072WS02003073 CONDUIT   1339.21     0  02:04      1.96    2.89    0.58
  WS02003069WS02003072 CONDUIT   1338.93     0  02:04      1.82    0.64    0.62
  WS02003060WS02003069 CONDUIT   1338.62     0  02:03      2.03    0.52    0.57
  WS02003059WS02003060 CONDUIT    400.58     0  02:44      0.95    0.26    0.77
  HS02004901HS02004770 CONDUIT     36.83     0  01:52      0.10    0.14    0.54
  HS02004876HS02004881 CONDUIT    139.07     0  01:54      1.26    1.48    0.16
  HS02004870HS02004876 CONDUIT    112.62     0  01:54      0.85    0.07    0.19
  HS02004842HS02004848 CONDUIT     18.18     0  02:06      0.08    0.01    0.34
  HS02004837HS02004842 CONDUIT     18.64     0  02:07      0.42    0.01    0.35
  HS02004830HS02004837 CONDUIT     67.83     0  01:54      0.68    0.07    0.14
  HS02004824HS02004830 CONDUIT     68.05     0  01:56      0.62    0.09    0.18
  HS02004817HS02004824 CONDUIT    136.37     0  01:57      0.32    0.06    0.60
  HS02004770HS02004777 CONDUIT    189.67     0  01:52      0.49    0.35    0.55
  HS02004799HS02004480 CONDUIT    470.62     0  01:53      1.09    0.59    0.62
  HS02004792HS02004799 CONDUIT    430.86     0  01:53      1.22    0.26    0.50
  HS02004788HS02004792 CONDUIT    248.72     0  01:54      1.29    0.16    0.28
  HS02004785HS02004788 CONDUIT    189.52     0  01:53      0.92    1.43    0.30
  HS02004777HS02004785 CONDUIT    189.40     0  01:53      0.59    0.23    0.46
  HS02004480HS02004478 CONDUIT    554.36     0  01:53      1.59    2.33    0.50
  HS02004479HS02004480 CONDUIT     83.71     0  01:53      0.37    0.08    0.59
  HS02004862HS02004870 CONDUIT     86.17     0  01:55      0.82    0.09    0.15
  HS02004848HS02004852 CONDUIT     40.37     0  01:54      0.54    0.05    0.11
  HS02004856HS02004862 CONDUIT     60.18     0  01:54      0.61    0.06    0.14
  HS02004852HS02004856 CONDUIT     40.43     0  01:55      0.35    0.05    0.17
  HS02004802HS02004478 CONDUIT    184.70     0  01:57      0.53    0.16    0.50
  HS02004478WS02006287 CONDUIT    735.63     0  01:54      2.18    0.21    0.38
  HS02004817HS02004807 CONDUIT    137.20     0  01:57      0.26    0.08    0.77
  HS02004807HS02004802 CONDUIT    183.91     0  01:56      0.47    0.35    0.56
  YS02001759YS02001757 CONDUIT    877.73     0  01:57      1.12    0.62    1.00
  YS02001762YS02001759 CONDUIT    433.16     0  01:55      0.55    0.50    1.00
  YS02001765YS02001762 CONDUIT    433.79     0  01:55      0.55    0.41    1.00
  YS02001770YS02001767 CONDUIT    433.83     0  01:55      0.55    1.72    1.00
  YS02001774YS02001770 CONDUIT    763.78     0  02:53      0.97    0.49    1.00
  YS02001779YS02001774 CONDUIT    763.78     0  02:53      0.97    0.38    1.00
  YS02001649YS02001757 CONDUIT   1001.31     0  01:49      1.27    0.61    1.00
  YS02001767YS02001765 CONDUIT    434.31     0  01:55      0.55    0.55    1.00
  YS02006561YS02001783 CONDUIT    982.96     0  02:15      2.15    0.51    1.00
  YS02001783YS02001784 CONDUIT    982.78     0  02:15      1.96    1.35    1.00
  YS02001784YS02001785 CONDUIT    983.92     0  02:15      1.96    2.29    1.00
  YS02001788YS02001790 CONDUIT    983.80     0  02:15      2.44    0.73    1.00
  YS02001790YS02001791 CONDUIT    983.90     0  02:15      2.91    1.07    1.00
  YS02001791YS02001793 CONDUIT    984.11     0  02:09      5.76    0.42    1.00
  YS02001910YS02001907 CONDUIT    661.26     0  01:52      0.84    0.37    1.00
  YS02001786YS02001788 CONDUIT    983.74     0  02:15      2.31    1.90    1.00
  YS02001915YS02001910 CONDUIT    661.35     0  01:52      0.84    0.33    1.00
  YS02001918YS02001915 CONDUIT    381.37     0  01:52      0.49    0.21    1.00
  YS02001923YS02001920 CONDUIT    377.02     0  01:52      0.81    0.17    1.00
  YS02001926YS02001923 CONDUIT    316.72     0  01:53      0.92    0.45    1.00
  YS02001929YS02001926 CONDUIT    268.43     0  01:52      0.98    0.13    1.00
  YS02001920YS02001918 CONDUIT    380.91     0  01:52      0.77    0.37    1.00
  YS02001629YS02163301 CONDUIT    221.48     0  01:46      0.28    0.27    1.00
  YS02001619YS02001622 CONDUIT    389.42     0  02:16      0.74    0.57    1.00
  YS02001622YS02001625 CONDUIT    388.59     0  02:16      0.49    0.21    1.00
  YS02001625YS02001629 CONDUIT    220.75     0  01:48      0.29    0.10    1.00
  YS02163301YS02001633 CONDUIT    224.51     0  01:46      0.29    0.21    1.00
  YS02163601YS02164001 CONDUIT    457.19     0  01:48      0.58    0.41    1.00
  YS02164001YS02001641 CONDUIT    456.25     0  01:48      0.58    0.62    1.00
  YS02001641YS02001644 CONDUIT    455.75     0  01:48      0.58    1.47    1.00
  YS02001647YS02001649 CONDUIT    846.72     0  02:58      1.08    0.45    1.00
  YS02006553YS02006556 CONDUIT    718.75     0  03:35      0.92    0.61    1.00
  YS02006556YS02006558 CONDUIT    718.88     0  03:35      0.92    0.57    1.00
  YSB6556YSB1171       CONDUIT     46.63     0  01:54      0.14    0.05    0.84
  YS02001907YS02006553 CONDUIT    718.67     0  03:35      0.80    0.85    1.00
  YS02006558YS02006561 CONDUIT    982.76     0  02:15      3.48    2.17    1.00
  YS02001633YS02163601 CONDUIT    457.50     0  01:48      0.58    0.48    1.00
  YS02001644YS02001647 CONDUIT    846.73     0  02:58      1.08    0.50    1.00
  YS02001745YS02001748 CONDUIT    450.79     0  02:16      1.67    0.17    0.98
  YS02001748YS02001751 CONDUIT    450.67     0  02:16      1.21    0.23    1.00
  YS02001751YS02001754 CONDUIT    450.77     0  02:16      1.02    0.22    1.00
  YS02001754YS02001757 CONDUIT    451.77     0  02:16      0.58    0.18    1.00
  YS02001882YS02001884 CONDUIT     62.62     0  01:48      0.16    0.07    1.00
  YS02001884YS02001887 CONDUIT     74.36     0  01:46      0.12    0.10    1.00
  YS02001890YS02001895 CONDUIT    521.40     0  01:51      0.66    0.24    1.00
  YS02001895YS02001898 CONDUIT    521.73     0  01:51      0.66    0.91    1.00
  YS02001898YS02001901 CONDUIT    522.32     0  01:51      0.67    0.34    1.00
  YS02001901YS02001904 CONDUIT    522.74     0  01:51      0.67    0.81    1.00
  YS02001904YS02001907 CONDUIT    521.77     0  01:51      0.66    0.18    1.00
  YS02001887YS02001890 CONDUIT    677.44     0  02:11      0.86    1.16    1.00
  YS02001652YS02001649 CONDUIT    520.20     0  02:09      0.71    0.26    1.00
  YS02001655YS02001652 CONDUIT    518.11     0  02:09      1.09    0.25    1.00
  YS02001658YS02001655 CONDUIT    516.53     0  02:09      1.41    0.22    1.00
  YS02001661YS02001658 CONDUIT    515.21     0  02:09      1.78    0.20    1.00
  YS02001664YS02001661 CONDUIT    768.34     0  01:57      1.69    0.24    0.77
  YSB1154YSB6556       CONDUIT     46.63     0  01:53      0.15    0.08    0.75
  YSB1174YSB1171       CONDUIT     38.39     0  01:50      0.11    0.06    0.87
  YSB1171HS02004479    CONDUIT     83.75     0  01:53      0.54    0.06    0.70
  HS02004881HS02006253 CONDUIT    157.27     0  01:54      2.75    0.03    0.54
  YS02001793JiankangQianchi CONDUIT    984.86     0  02:15     16.46    0.08    1.00
  YS02001757CaochengTiaoxuchi CONDUIT   2147.78     0  01:55      3.55    0.94    1.00
  WSF200WS02003060     CONDUIT    955.87     0  01:58      1.97    0.21    0.45
  1                    CONDUIT   1341.39     0  02:05      3.59    0.47    0.48
  CC-Pump-1            PUMP       200.00     0  02:20              1.00
  CC-Pump-2            PUMP       200.00     0  07:20              1.00
  JK-Pump-1            PUMP       300.00     0  02:00              1.00
  JK-Pump-2            PUMP       683.00     0  02:00              1.00
  XR-Pump-1            PUMP        95.00     0  00:00              1.00
  XR-Pump-2            PUMP        95.00     0  00:00              1.00
  XR-Pump-3            PUMP        95.00     0  00:00              1.00
  XR-Pump-4            PUMP        95.00     0  00:00              1.00
  
  
  ***************************
  Flow Classification Summary
  ***************************
  
  -------------------------------------------------------------------------------------
                      Adjusted    ---------- Fraction of Time in Flow Class ---------- 
                       /Actual         Up    Down  Sub   Sup   Up    Down  Norm  Inlet 
  Conduit               Length    Dry  Dry   Dry   Crit  Crit  Crit  Crit  Ltd   Ctrl  
  -------------------------------------------------------------------------------------
  WS02003066WSF200        1.00   0.01  0.04  0.00  0.00  0.96  0.00  0.00  0.59  0.00
  WS02006287WS02006284    1.00   0.03  0.01  0.00  0.60  0.35  0.00  0.00  0.63  0.00
  WS02006284WS02006280    1.00   0.04  0.00  0.00  0.00  0.00  0.00  0.96  0.00  0.00
  WS02006280WS02006229    1.00   0.04  0.00  0.00  0.02  0.04  0.00  0.90  0.02  0.00
  WS02006229WS02006228    1.00   0.00  0.00  0.00  1.00  0.00  0.00  0.00  0.00  0.00
  WS02006256WS02006235    1.00   0.02  0.00  0.00  0.98  0.00  0.00  0.00  0.00  0.00
  WS02006253WS02006251    1.00   0.01  0.02  0.00  0.96  0.00  0.01  0.00  0.00  0.00
  WS02006252WS02006251    1.00   0.11  0.02  0.00  0.09  0.00  0.78  0.00  0.00  0.00
  WS02006251WS02006249    1.00   0.00  0.00  0.00  1.00  0.00  0.00  0.00  0.27  0.00
  WS02006249WS02006248    1.00   0.00  0.00  0.00  0.90  0.00  0.10  0.00  0.00  0.00
  WS02006248WS02006247    1.00   0.01  0.00  0.00  0.98  0.00  0.00  0.02  0.14  0.00
  WS02006247WS02006245    1.00   0.01  0.00  0.00  0.96  0.00  0.00  0.03  0.00  0.00
  WS02006245WS02006243    1.00   0.01  0.00  0.00  0.94  0.00  0.00  0.05  0.01  0.00
  WS02006243WS02006242    1.00   0.01  0.00  0.00  0.98  0.00  0.00  0.01  0.16  0.00
  WS02006242WS02006240    1.00   0.01  0.01  0.00  0.97  0.00  0.01  0.00  0.00  0.00
  WS02006240WS02006239    1.00   0.02  0.00  0.00  0.94  0.00  0.00  0.04  0.02  0.00
  WS02006239WS02006238    1.00   0.02  0.00  0.00  0.98  0.00  0.00  0.00  0.03  0.00
  WS02006238WS02006235    1.00   0.02  0.00  0.00  0.98  0.00  0.00  0.00  0.00  0.00
  WS02006235WS02006234    1.00   0.02  0.00  0.00  0.97  0.00  0.02  0.00  0.00  0.00
  WS02006234WS02006232    1.00   0.02  0.00  0.00  0.98  0.00  0.00  0.00  0.00  0.00
  WS02006232WS02006231    1.00   0.02  0.00  0.00  0.98  0.00  0.00  0.00  0.00  0.00
  WS02006231WS02006230    1.00   0.02  0.00  0.00  0.67  0.00  0.31  0.00  0.00  0.00
  WS02006230WS02006229    1.00   0.00  0.00  0.00  0.99  0.00  0.00  0.01  0.00  0.00
  WS02006228WS02006109    1.00   0.00  0.00  0.00  1.00  0.00  0.00  0.00  0.00  0.00
  WS02006116WS02004401    1.00   0.03  0.00  0.00  0.97  0.00  0.00  0.00  0.00  0.00
  WS02006115WS02006116    1.00   0.03  0.00  0.00  0.97  0.00  0.00  0.00  0.00  0.00
  WS02006113WS02006111    1.00   0.02  0.00  0.00  0.08  0.91  0.00  0.00  0.20  0.00
  WS02006112WS02006115    1.00   0.02  0.01  0.00  0.97  0.00  0.00  0.00  0.00  0.00
  WS02006111WS02006112    1.00   0.02  0.00  0.00  0.98  0.00  0.00  0.00  0.78  0.00
  WS02006110WS02006113    1.00   0.00  0.01  0.00  0.98  0.00  0.00  0.00  0.00  0.00
  WS02006109WS02006110    1.00   0.00  0.00  0.00  0.99  0.00  0.00  0.00  0.00  0.00
  WS02004411WS02004412    1.00   0.03  0.00  0.00  0.97  0.00  0.00  0.00  0.00  0.00
  WS02004401WS02004402    1.00   0.03  0.00  0.00  0.97  0.00  0.00  0.00  0.00  0.00
  WS02004413WS02003067    1.00   0.04  0.00  0.00  0.00  0.00  0.96  0.00  0.00  0.00
  WS02004412WS02004413    1.00   0.04  0.00  0.00  0.96  0.00  0.00  0.00  0.00  0.00
  WS02004410WS02004411    1.00   0.03  0.00  0.00  0.97  0.00  0.00  0.00  0.00  0.00
  WS02004409WS02004410    1.00   0.03  0.00  0.00  0.97  0.00  0.00  0.00  0.00  0.00
  WS02004407WS02004409    1.00   0.03  0.00  0.00  0.96  0.00  0.00  0.00  0.89  0.00
  WS02004406WS02004407    1.00   0.00  0.03  0.00  0.97  0.00  0.00  0.00  0.00  0.00
  WS02004405WS02004406    1.00   0.00  0.00  0.00  1.00  0.00  0.00  0.00  0.04  0.00
  WS02004404WS02004405    1.00   0.00  0.00  0.00  1.00  0.00  0.00  0.00  0.00  0.00
  WS02004403WS02004404    1.00   0.00  0.03  0.00  0.97  0.00  0.00  0.00  0.00  0.00
  WS02004402WS02004403    1.00   0.03  0.00  0.00  0.97  0.00  0.00  0.00  0.00  0.00
  WS02004139WS02001211    1.00   0.00  0.00  0.00  1.00  0.00  0.00  0.00  0.00  0.00
  WS02004138WS02004139    1.00   0.00  0.00  0.00  1.00  0.00  0.00  0.00  1.00  0.00
  WS02003067WS02003066    1.00   0.04  0.00  0.00  0.96  0.00  0.00  0.00  0.00  0.00
  WS02001213WS02003059    1.00   0.00  0.00  0.00  1.00  0.00  0.00  0.00  0.00  0.00
  WS02001212WS02001213    1.00   0.00  0.00  0.00  0.92  0.00  0.07  0.00  0.00  0.00
  WS02001211WS02001212    1.00   0.00  0.00  0.00  1.00  0.00  0.00  0.00  0.00  0.00
  WS02003072WS02003073    1.00   0.00  0.00  0.00  0.00  0.00  0.00  1.00  0.00  0.00
  WS02003069WS02003072    1.00   0.00  0.00  0.00  1.00  0.00  0.00  0.00  0.08  0.00
  WS02003060WS02003069    1.00   0.00  0.00  0.00  0.99  0.01  0.00  0.00  0.07  0.00
  WS02003059WS02003060    1.00   0.00  0.00  0.00  1.00  0.00  0.00  0.00  0.00  0.00
  HS02004901HS02004770    1.00   0.04  0.00  0.00  0.96  0.00  0.00  0.00  0.00  0.00
  HS02004876HS02004881    1.00   0.01  0.00  0.00  0.90  0.10  0.00  0.00  0.00  0.00
  HS02004870HS02004876    1.00   0.00  0.00  0.00  1.00  0.00  0.00  0.00  0.95  0.00
  HS02004842HS02004848    1.00   0.00  0.04  0.00  0.96  0.00  0.00  0.00  0.56  0.00
  HS02004837HS02004842    1.00   0.00  0.00  0.00  1.00  0.00  0.00  0.00  0.11  0.00
  HS02004830HS02004837    1.00   0.00  0.00  0.00  1.00  0.00  0.00  0.00  0.99  0.00
  HS02004824HS02004830    1.00   0.00  0.00  0.00  1.00  0.00  0.00  0.00  0.03  0.00
  HS02004817HS02004824    1.00   0.00  0.00  0.00  1.00  0.00  0.00  0.00  0.92  0.00
  HS02004770HS02004777    1.00   0.00  0.04  0.00  0.96  0.00  0.00  0.00  0.02  0.00
  HS02004799HS02004480    1.00   0.00  0.01  0.00  0.95  0.00  0.04  0.00  0.00  0.00
  HS02004792HS02004799    1.00   0.00  0.00  0.00  1.00  0.00  0.00  0.00  0.98  0.00
  HS02004788HS02004792    1.00   0.00  0.00  0.00  1.00  0.00  0.00  0.00  0.98  0.00
  HS02004785HS02004788    1.00   0.00  0.00  0.00  1.00  0.00  0.00  0.00  0.00  0.00
  HS02004777HS02004785    1.00   0.00  0.00  0.00  1.00  0.00  0.00  0.00  0.11  0.00
  HS02004480HS02004478    1.00   0.04  0.00  0.00  0.68  0.00  0.00  0.28  0.00  0.00
  HS02004479HS02004480    1.00   0.01  0.00  0.00  0.99  0.00  0.00  0.00  0.11  0.00
  HS02004862HS02004870    1.00   0.00  0.00  0.00  1.00  0.00  0.00  0.00  0.03  0.00
  HS02004848HS02004852    1.00   0.04  0.00  0.00  0.96  0.00  0.00  0.00  0.79  0.00
  HS02004856HS02004862    1.00   0.00  0.05  0.00  0.95  0.00  0.00  0.00  0.84  0.00
  HS02004852HS02004856    1.00   0.04  0.00  0.00  0.96  0.00  0.00  0.00  0.77  0.00
  HS02004802HS02004478    1.00   0.04  0.00  0.00  0.96  0.00  0.00  0.00  0.02  0.00
  HS02004478WS02006287    1.00   0.05  0.00  0.00  0.73  0.23  0.00  0.00  0.62  0.00
  HS02004817HS02004807    1.00   0.00  0.04  0.00  0.96  0.00  0.00  0.00  0.01  0.00
  HS02004807HS02004802    1.00   0.04  0.00  0.00  0.96  0.00  0.00  0.00  0.00  0.00
  YS02001759YS02001757    1.00   0.00  0.00  0.00  1.00  0.00  0.00  0.00  0.15  0.00
  YS02001762YS02001759    1.00   0.00  0.00  0.00  1.00  0.00  0.00  0.00  0.02  0.00
  YS02001765YS02001762    1.00   0.00  0.00  0.00  1.00  0.00  0.00  0.00  0.13  0.00
  YS02001770YS02001767    1.00   0.00  0.00  0.00  1.00  0.00  0.00  0.00  0.00  0.00
  YS02001774YS02001770    1.00   0.00  0.04  0.00  0.96  0.00  0.00  0.00  0.02  0.00
  YS02001779YS02001774    1.00   0.00  0.00  0.00  1.00  0.00  0.00  0.00  0.17  0.00
  YS02001649YS02001757    1.00   0.00  0.00  0.00  1.00  0.00  0.00  0.00  0.15  0.00
  YS02001767YS02001765    1.00   0.00  0.00  0.00  1.00  0.00  0.00  0.00  0.00  0.00
  YS02006561YS02001783    1.00   0.05  0.00  0.00  0.45  0.50  0.00  0.00  0.45  0.00
  YS02001783YS02001784    1.00   0.00  0.05  0.00  0.95  0.00  0.00  0.00  0.00  0.00
  YS02001784YS02001785    1.00   0.00  0.00  0.00  1.00  0.00  0.00  0.00  0.16  0.00
  YS02001788YS02001790    1.00   0.00  0.00  0.00  0.50  0.50  0.00  0.00  0.35  0.00
  YS02001790YS02001791    1.00   0.00  0.00  0.00  0.46  0.54  0.00  0.00  0.40  0.00
  YS02001791YS02001793    1.00   0.00  0.00  0.00  0.50  0.50  0.00  0.00  0.02  0.00
  YS02001910YS02001907    1.00   0.00  0.00  0.00  0.99  0.00  0.00  0.01  0.12  0.00
  YS02001786YS02001788    1.00   0.00  0.00  0.00  0.48  0.52  0.00  0.00  0.00  0.00
  YS02001915YS02001910    1.00   0.00  0.00  0.00  0.99  0.01  0.00  0.00  0.13  0.00
  YS02001918YS02001915    1.00   0.00  0.00  0.00  0.99  0.00  0.00  0.00  0.50  0.00
  YS02001923YS02001920    1.00   0.00  0.00  0.00  1.00  0.00  0.00  0.00  0.74  0.00
  YS02001926YS02001923    1.00   0.00  0.02  0.00  0.23  0.00  0.75  0.00  0.00  0.00
  YS02001929YS02001926    1.00   0.00  0.04  0.00  0.96  0.00  0.00  0.00  0.65  0.00
  YS02001920YS02001918    1.00   0.00  0.00  0.00  1.00  0.00  0.00  0.00  0.00  0.00
  YS02001629YS02163301    1.00   0.04  0.00  0.00  0.95  0.00  0.00  0.00  0.00  0.00
  YS02001619YS02001622    1.00   0.04  0.00  0.00  0.96  0.00  0.00  0.00  0.00  0.00
  YS02001622YS02001625    1.00   0.04  0.00  0.00  0.96  0.00  0.00  0.00  0.03  0.00
  YS02001625YS02001629    1.00   0.04  0.01  0.00  0.93  0.00  0.01  0.00  0.00  0.00
  YS02163301YS02001633    1.00   0.00  0.04  0.00  0.96  0.00  0.00  0.00  0.00  0.00
  YS02163601YS02164001    1.00   0.00  0.02  0.00  0.98  0.00  0.00  0.00  0.00  0.00
  YS02164001YS02001641    1.00   0.00  0.02  0.00  0.98  0.00  0.00  0.00  0.06  0.00
  YS02001641YS02001644    1.00   0.00  0.00  0.00  1.00  0.00  0.00  0.00  0.00  0.00
  YS02001647YS02001649    1.00   0.00  0.05  0.00  0.95  0.00  0.00  0.00  0.01  0.00
  YS02006553YS02006556    1.00   0.00  0.00  0.00  1.00  0.00  0.00  0.00  0.03  0.00
  YS02006556YS02006558    1.00   0.00  0.00  0.00  1.00  0.00  0.00  0.00  0.00  0.00
  YSB6556YSB1171          1.00   0.01  0.03  0.00  0.96  0.00  0.00  0.00  0.00  0.00
  YS02001907YS02006553    1.00   0.00  0.01  0.00  0.99  0.00  0.00  0.00  0.00  0.00
  YS02006558YS02006561    1.00   0.05  0.00  0.00  0.23  0.71  0.00  0.00  0.44  0.00
  YS02001633YS02163601    1.00   0.00  0.00  0.00  1.00  0.00  0.00  0.00  0.15  0.00
  YS02001644YS02001647    1.00   0.00  0.05  0.00  0.95  0.00  0.00  0.00  0.00  0.00
  YS02001745YS02001748    1.00   0.00  0.00  0.00  0.92  0.00  0.00  0.08  0.01  0.00
  YS02001748YS02001751    1.00   0.00  0.00  0.00  0.97  0.03  0.00  0.00  0.14  0.00
  YS02001751YS02001754    1.00   0.00  0.00  0.00  0.94  0.00  0.00  0.06  0.01  0.00
  YS02001754YS02001757    1.00   0.00  0.00  0.00  1.00  0.00  0.00  0.00  0.17  0.00
  YS02001882YS02001884    1.00   0.04  0.00  0.00  0.95  0.00  0.00  0.00  0.00  0.00
  YS02001884YS02001887    1.00   0.02  0.02  0.00  0.96  0.00  0.00  0.00  0.00  0.00
  YS02001890YS02001895    1.00   0.00  0.05  0.00  0.95  0.00  0.00  0.00  0.00  0.00
  YS02001895YS02001898    1.00   0.05  0.00  0.00  0.95  0.00  0.01  0.00  0.00  0.00
  YS02001898YS02001901    1.00   0.05  0.00  0.00  0.95  0.00  0.00  0.00  0.01  0.00
  YS02001901YS02001904    1.00   0.05  0.00  0.00  0.95  0.00  0.00  0.00  0.00  0.00
  YS02001904YS02001907    1.00   0.00  0.05  0.00  0.95  0.00  0.00  0.00  0.00  0.00
  YS02001887YS02001890    1.00   0.00  0.00  0.00  0.99  0.00  0.01  0.00  0.00  0.00
  YS02001652YS02001649    1.00   0.00  0.00  0.00  1.00  0.00  0.00  0.00  0.15  0.00
  YS02001655YS02001652    1.00   0.00  0.00  0.00  0.94  0.00  0.00  0.06  0.01  0.00
  YS02001658YS02001655    1.00   0.00  0.04  0.00  0.93  0.02  0.00  0.00  0.02  0.00
  YS02001661YS02001658    1.00   0.04  0.00  0.00  0.92  0.04  0.00  0.00  0.01  0.00
  YS02001664YS02001661    1.00   0.04  0.00  0.00  0.93  0.03  0.00  0.00  0.10  0.00
  YSB1154YSB6556          1.00   0.04  0.00  0.00  0.96  0.00  0.00  0.00  0.01  0.00
  YSB1174YSB1171          1.00   0.01  0.02  0.00  0.97  0.00  0.00  0.00  0.00  0.00
  YSB1171HS02004479       1.00   0.01  0.00  0.00  0.99  0.00  0.00  0.00  0.10  0.00
  HS02004881HS02006253    1.00   0.01  0.00  0.00  0.56  0.04  0.00  0.38  0.43  0.00
  YS02001793JiankangQianchi    1.00   0.00  0.00  0.00  0.74  0.26  0.00  0.00  0.37  0.00
  YS02001757CaochengTiaoxuchi    1.00   0.00  0.07  0.00  0.90  0.03  0.00  0.00  0.00  0.00
  WSF200WS02003060        1.00   0.00  0.01  0.00  0.99  0.01  0.00  0.00  0.47  0.00
  1                       1.00   0.00  0.00  0.00  0.00  1.00  0.00  0.00  0.53  0.00
  
  
  *************************
  Conduit Surcharge Summary
  *************************
  
  ----------------------------------------------------------------------------
                                                           Hours        Hours 
                         --------- Hours Full --------   Above Full   Capacity
  Conduit                Both Ends  Upstream  Dnstream   Normal Flow   Limited
  ----------------------------------------------------------------------------
  WS02006229WS02006228        3.05      3.25      3.05      4.53         3.05
  WS02006256WS02006235        5.83      5.83      7.05      4.60         0.01
  WS02006253WS02006251        1.21      1.21      1.25      0.01         0.03
  WS02006252WS02006251        0.90      0.90      1.57      0.91         0.01
  WS02006251WS02006249        1.22      1.22      1.28      0.50         0.35
  WS02006249WS02006248        1.25      1.25      1.28      1.93         0.01
  WS02006248WS02006247        1.29      1.29      1.40      0.01         0.01
  WS02006247WS02006245        1.40      1.43      1.40      2.75         1.15
  WS02006245WS02006243        1.43      1.43      1.52      0.19         0.13
  WS02006243WS02006242        1.56      1.56      1.99      0.01         0.01
  WS02006242WS02006240        1.85      1.85      2.22      0.83         0.01
  WS02006240WS02006239        1.93      1.94      2.18      0.42         0.21
  WS02006239WS02006238        2.42      2.43      2.63      0.45         0.26
  WS02006238WS02006235        2.61      2.61      2.85      0.01         0.02
  WS02006235WS02006234        2.24      2.24      2.55      5.50         0.02
  WS02006234WS02006232        2.36      2.36      3.05      0.22         0.24
  WS02006232WS02006231        1.73      1.73      3.05      0.32         0.01
[...]
  YS02001779YS02001774        6.13      6.13      6.19      0.01         0.01
  YS02001649YS02001757        6.19      6.19      6.23      0.01         0.01
  YS02001767YS02001765        6.18      6.18      6.18      0.01         0.01
  YS02006561YS02001783        1.70      1.70      1.94      0.01         0.01
  YS02001783YS02001784        1.92      1.94      1.92      2.12         1.90
  YS02001784YS02001785        1.87      1.92      1.87      2.91         1.87
  YS02001788YS02001790        1.82      1.82      2.72      0.01         0.01
  YS02001790YS02001791        2.72      2.72      2.81      1.82         1.81
  YS02001791YS02001793        2.81      2.81      3.14      0.01         0.01
  YS02001910YS02001907        1.93      1.93      2.37      0.01         0.01
  YS02001786YS02001788        1.82      1.87      1.82      2.53         1.82
  YS02001915YS02001910        1.80      1.80      1.93      0.01         0.01
  YS02001918YS02001915        1.66      1.66      1.80      0.01         0.01
  YS02001923YS02001920        1.50      1.50      1.69      0.01         0.01
  YS02001926YS02001923        0.01      0.01      0.01      0.01         0.01
  YS02001929YS02001926        0.01      0.01      0.01      0.01         0.01
  YS02001920YS02001918        1.66      1.66      1.69      0.01         0.01
  YS02001629YS02163301        6.16      6.16      6.17      0.01         0.01
  YS02001619YS02001622        6.09      6.09      6.10      0.01         0.03
  YS02001622YS02001625        6.10      6.10      6.15      0.01         0.01
  YS02001625YS02001629        6.09      6.09      6.15      0.01         0.01
  YS02163301YS02001633        6.17      6.17      6.18      0.01         0.01
  YS02163601YS02164001        6.17      6.17      6.20      0.01         0.01
  YS02164001YS02001641        6.17      6.17      6.18      0.01         0.02
  YS02001641YS02001644        6.18      6.18      6.19      2.38         2.60
  YS02001647YS02001649        6.15      6.15      6.19      0.01         0.01
  YS02006553YS02006556        2.10      2.10      2.45      0.01         0.01
  YS02006556YS02006558        2.21      2.21      2.54      0.01         0.01
  YSB6556YSB1171              0.01      0.01      0.30      0.01         0.01
  YS02001907YS02006553        2.94      2.94      3.12      0.01         0.01
  YS02006558YS02006561        1.79      2.08      1.79      2.77         1.79
  YS02001633YS02163601        6.17      6.17      6.20      0.01         0.01
  YS02001644YS02001647        6.15      6.15      6.19      0.01         0.01
  YS02001745YS02001748        0.01      0.01      6.04      0.01         0.01
  YS02001748YS02001751        6.05      6.05      6.09      0.01         0.01
  YS02001751YS02001754        6.09      6.09      6.14      0.01         0.01
  YS02001754YS02001757        6.15      6.15      6.23      0.01         0.01
  YS02001882YS02001884        1.81      1.81      1.83      0.01         0.01
  YS02001884YS02001887        1.86      1.86      1.88      0.01         0.01
  YS02001890YS02001895        1.79      1.79      1.95      0.01         0.01
  YS02001895YS02001898        1.78      1.78      1.79      0.01         0.01
  YS02001898YS02001901        1.80      1.80      1.86      0.01         0.01
  YS02001901YS02001904        1.84      1.84      1.86      0.01         0.01
  YS02001904YS02001907        1.84      1.84      2.49      0.01         0.01
  YS02001887YS02001890        1.90      1.90      1.92      0.52         0.01
  YS02001652YS02001649        6.16      6.16      6.19      0.01         0.01
  YS02001655YS02001652        6.10      6.10      6.15      0.01         0.01
  YS02001658YS02001655        6.05      6.05      6.10      0.01         0.01
  YS02001661YS02001658        0.08      0.08      6.05      0.01         0.01
  YS02001664YS02001661        0.01      0.01      1.83      0.01         0.01
  HS02004881HS02006253        0.01      0.01      0.88      0.01         0.01
  YS02001793JiankangQianchi        3.05      3.05      5.07      0.01         0.01
  YS02001757CaochengTiaoxuchi        5.75      5.75      6.23      0.01         0.01
  
  
  ***************
  Pumping Summary
  ***************
  
  ---------------------------------------------------------------------------------------------------------
                                                  Min       Avg       Max     Total     Power    % Time Off
                        Percent   Number of      Flow      Flow      Flow    Volume     Usage    Pump Curve
  Pump                 Utilized   Start-Ups       LPS       LPS       LPS  10^6 ltr     Kw-hr    Low   High
  ---------------------------------------------------------------------------------------------------------
  CC-Pump-1               48.92           8      0.00    138.25    200.00     1.800      1.55    0.0    0.0
  CC-Pump-2               23.40           5      0.00    100.95    200.00     0.720      0.84    0.0    0.0
  JK-Pump-1               61.71           4      0.00    244.86    300.00     4.077     53.95    0.0    0.0
  JK-Pump-2               55.33           3      0.00    478.63    683.00     7.355     87.09    0.0   97.7
  XR-Pump-1              100.00           1      0.00     93.56     95.00     2.622     21.60    0.0    0.0
  XR-Pump-2               97.86           2      0.00     92.89     95.00     2.508     19.14    0.0    0.0
  XR-Pump-3               97.86           2      0.00     92.89     95.00     2.508     19.14    0.0    0.0
  XR-Pump-4               97.86           2      0.00     92.89     95.00     2.508     19.14    0.0    0.0
  
  
  ***************************
  Link Pollutant Load Summary
  ***************************
  
  ------------------------------------------------------------------------------------------
                                 COD            SS            TN            TP         NH4-N
  Link                            kg            kg            kg            kg            kg
  ------------------------------------------------------------------------------------------
  WS02003066WSF200           991.683      1914.719        24.186         2.055        12.525
  WS02006287WS02006284       438.101       854.574        12.587         1.181         6.763
  WS02006284WS02006280       438.604       855.385        12.634         1.187         6.793
  WS02006280WS02006229       438.613       855.452        12.632         1.187         6.791
  WS02006229WS02006228       991.934      1915.556        23.727         1.986        12.220
  WS02006256WS02006235       246.904       466.927         5.133         0.382         2.548
  WS02006253WS02006251        86.833       174.430         1.865         0.139         0.920
  WS02006252WS02006251       268.383       515.310         5.086         0.350         2.444
  WS02006251WS02006249       347.150       674.590         6.796         0.478         3.291
  WS02006249WS02006248       313.571       607.357         6.155         0.434         2.983
  WS02006248WS02006247       312.738       605.496         6.141         0.433         2.977
  WS02006247WS02006245       313.213       606.454         6.151         0.434         2.982
  WS02006245WS02006243       313.942       608.054         6.160         0.434         2.986
  WS02006243WS02006242       315.615       611.293         6.195         0.437         3.003
  WS02006242WS02006240       315.672       611.343         6.183         0.435         2.995
  WS02006240WS02006239       315.724       611.201         6.185         0.435         2.996
  WS02006239WS02006238       316.037       611.304         6.201         0.437         3.005
  WS02006238WS02006235       315.618       610.023         6.200         0.437         3.006
  WS02006235WS02006234       556.208      1065.471        11.184         0.808         5.478
  WS02006234WS02006232       555.955      1065.032        11.177         0.807         5.474
  WS02006232WS02006231       555.335      1063.864        11.164         0.806         5.467
  WS02006231WS02006230       554.923      1063.046        11.159         0.806         5.465
  WS02006230WS02006229       555.599      1064.425        11.177         0.808         5.475
  WS02006228WS02006109       990.796      1913.526        23.683         1.981        12.195
  WS02006116WS02004401      1008.330      1946.103        24.540         2.081        12.701
  WS02006115WS02006116      1010.030      1949.298        24.582         2.085        12.723
  WS02006113WS02006111       996.383      1922.087        24.379         2.071        12.636
  WS02006112WS02006115      1011.618      1952.247        24.631         2.089        12.750
  WS02006111WS02006112       995.469      1920.272        24.354         2.068        12.623
  WS02006110WS02006113       996.876      1922.882        24.399         2.073        12.647
  WS02006109WS02006110       998.257      1925.250        24.465         2.080        12.686
  WS02004411WS02004412       995.717      1922.225        24.304         2.066        12.589
  WS02004401WS02004402      1006.603      1942.892        24.491         2.077        12.674
  WS02004413WS02003067       992.563      1916.402        24.203         2.056        12.533
  WS02004412WS02004413       994.074      1919.151        24.261         2.062        12.566
  WS02004410WS02004411       997.070      1924.764        24.337         2.068        12.606
  WS02004409WS02004410       998.385      1927.223        24.371         2.071        12.624
  WS02004407WS02004409       999.519      1929.360        24.396         2.073        12.637
  WS02004406WS02004407       999.781      1929.861        24.396         2.073        12.636
  WS02004405WS02004406      1001.913      1933.720        24.478         2.081        12.682
  WS02004404WS02004405      1003.643      1937.086        24.489         2.080        12.683
  WS02004403WS02004404      1003.496      1937.106        24.407         2.069        12.630
  WS02004402WS02004403      1004.952      1939.809        24.449         2.073        12.652
  WS02004139WS02001211      1360.650      2306.012       102.067        12.312        62.493
  WS02004138WS02004139      1366.758      2316.321       102.520        12.366        62.770
  WS02003067WS02003066       991.835      1915.005        24.191         2.055        12.527
  WS02001213WS02003059      1394.341      2358.758       105.590        12.757        64.708
  WS02001212WS02001213      1403.065      2373.352       106.272        12.840        65.127
  WS02001211WS02001212      1405.164      2376.787       106.452        12.862        65.239
  WS02003072WS02003073      2486.149      4432.007       139.811        16.072        83.523
  WS02003069WS02003072      2490.843      4439.791       140.190        16.119        83.756
  WS02003060WS02003069      2493.654      4444.779       140.336        16.135        83.842
  WS02003059WS02003060      1391.464      2353.812       105.400        12.734        64.593
  HS02004901HS02004770        19.399        38.442         0.369         0.028         0.174
  HS02004876HS02004881        64.842       131.155         1.382         0.100         0.674
  HS02004870HS02004876        49.301        99.619         1.094         0.080         0.537
  HS02004842HS02004848         9.278        18.137         0.191         0.013         0.089
  HS02004837HS02004842        13.927        25.528         0.662         0.072         0.384
  HS02004830HS02004837        81.308       145.732         4.858         0.568         2.931
  HS02004824HS02004830        82.101       147.036         4.931         0.577         2.976
  HS02004817HS02004824       118.564       221.806         5.667         0.624         3.333
  HS02004770HS02004777        73.684       147.825         1.507         0.104         0.700
  HS02004799HS02004480       235.084       460.643         5.679         0.484         2.882
  HS02004792HS02004799       214.144       417.336         5.330         0.464         2.722
  HS02004788HS02004792       116.317       227.346         3.333         0.303         1.755
  HS02004785HS02004788        75.102       150.093         1.653         0.123         0.793
  HS02004777HS02004785        74.431       149.018         1.592         0.115         0.755
  HS02004480HS02004478       294.425       579.934         6.703         0.559         3.370
  HS02004479HS02004480        62.982       125.168         1.335         0.113         0.681
  HS02004862HS02004870        37.532        74.850         0.862         0.066         0.425
  HS02004848HS02004852        15.822        31.381         0.320         0.022         0.149
  HS02004856HS02004862        25.851        52.199         0.514         0.035         0.242
  HS02004852HS02004856        15.835        31.404         0.320         0.022         0.149
  HS02004802HS02004478       144.601       276.119         5.949         0.629         3.433
  HS02004478WS02006287       438.247       854.780        12.603         1.183         6.773
  HS02004817HS02004807       117.211       219.670         5.527         0.607         3.246
  HS02004807HS02004802       144.765       276.368         5.980         0.634         3.453
  YS02001759YS02001757       402.215       762.813         7.824         0.549         3.814
  YS02001762YS02001759       238.289       450.287         4.801         0.339         2.356
  YS02001765YS02001762       240.359       455.474         4.855         0.344         2.386
  YS02001770YS02001767       245.888       469.405         4.845         0.335         2.361
  YS02001774YS02001770       487.761       951.618         9.452         0.635         4.577
  YS02001779YS02001774       487.200       950.620         9.520         0.646         4.625
  YS02001649YS02001757       497.412       926.480         9.945         0.681         4.797
  YS02001767YS02001765       243.137       462.038         4.925         0.350         2.423
  YS02006561YS02001783      1263.638      2385.760        26.068         1.925        12.902
  YS02001783YS02001784      1263.570      2385.674        26.064         1.925        12.900
  YS02001784YS02001785      1270.939      2397.498        26.777         2.014        13.346
  YS02001788YS02001790      1271.600      2398.596        26.850         2.024        13.392
  YS02001790YS02001791      1272.659      2400.310        26.951         2.036        13.455
  YS02001791YS02001793      1272.687      2400.377        26.949         2.036        13.453
  YS02001910YS02001907       565.819      1068.466        12.774         0.944         6.449
  YS02001786YS02001788      1271.162      2397.873        26.806         2.018        13.364
  YS02001915YS02001910       565.586      1067.982        12.729         0.937         6.419
  YS02001918YS02001915       279.189       506.412         6.910         0.595         3.631
  YS02001923YS02001920       253.925       463.233         4.885         0.349         2.381
  YS02001926YS02001923       250.811       457.632         4.760         0.336         2.310
  YS02001929YS02001926       248.095       452.867         4.643         0.324         2.242
  YS02001920YS02001918       275.022       497.680         6.818         0.589         3.586
  YS02001629YS02163301        89.664       159.286         1.894         0.124         0.888
  YS02001619YS02001622       259.382       485.239         5.243         0.348         2.461
  YS02001622YS02001625       258.424       483.736         5.219         0.346         2.450
  YS02001625YS02001629        86.742       153.487         1.849         0.120         0.865
  YS02163301YS02001633        94.520       168.808         1.971         0.131         0.927
  YS02163601YS02164001       529.128       976.702        10.166         0.735         4.887
  YS02164001YS02001641       529.020       976.510        10.154         0.733         4.879
  YS02001641YS02001644       530.058       978.253        10.166         0.734         4.884
  YS02001647YS02001649       657.311      1229.697        13.113         0.909         6.280
  YS02006553YS02006556       782.488      1458.431        16.633         1.260         8.332
  YS02006556YS02006558       782.723      1458.869        16.600         1.255         8.309
  YSB6556YSB1171              36.521        72.733         0.718         0.058         0.359
  YS02001907YS02006553       782.436      1458.347        16.660         1.264         8.350
  YS02006558YS02006561      1263.563      2385.603        26.066         1.925        12.901
  YS02001633YS02163601       529.716       977.624        10.143         0.730         4.869
  YS02001644YS02001647       664.304      1243.157        13.220         0.917         6.329
  YS02001745YS02001748       354.042       679.923         6.988         0.437         3.357
  YS02001748YS02001751       353.330       678.715         6.995         0.440         3.365
  YS02001751YS02001754       352.447       677.268         6.982         0.440         3.360
  YS02001754YS02001757       353.272       678.509         7.148         0.462         3.468
  YS02001882YS02001884         5.319         9.498         0.101         0.008         0.049
  YS02001884YS02001887         7.705        13.913         0.146         0.011         0.072
  YS02001890YS02001895       614.654      1175.192        11.358         0.858         5.542
  YS02001895YS02001898       614.587      1175.164        11.354         0.858         5.539
  YS02001898YS02001901       614.673      1175.226        11.358         0.858         5.541
  YS02001901YS02001904       614.136      1174.480        11.354         0.858         5.541
  YS02001904YS02001907       615.025      1175.863        11.430         0.868         5.588
  YS02001887YS02001890       669.130      1284.146        12.353         0.936         6.031
  YS02001652YS02001649       314.281       596.386         6.243         0.451         2.933
  YS02001655YS02001652       314.808       597.258         6.257         0.453         2.941
  YS02001658YS02001655       314.293       596.464         6.171         0.441         2.884
  YS02001661YS02001658       314.814       597.345         6.183         0.442         2.890
  YS02001664YS02001661       324.757       613.031         6.421         0.458         2.999
  YSB1154YSB6556              36.099        72.065         0.671         0.053         0.330
  YSB1174YSB1171              24.947        50.012         0.489         0.039         0.242
  YSB1171HS02004479           62.903       125.020         1.341         0.114         0.685
  HS02004881HS02006253        73.207       148.573         1.536         0.110         0.748
  YS02001793JiankangQianchi      1272.681      2400.433        26.906         2.030        13.425
  YS02001757CaochengTiaoxuchi       657.547      1248.617        12.712         0.874         6.126
  WSF200WS02003060           991.322      1914.011        24.184         2.055        12.525
  1                         2490.930      4438.438       140.570        16.172        84.009
  CC-Pump-1                  192.996       370.909         3.648         0.251         1.752
  CC-Pump-2                   75.031       143.701         1.427         0.098         0.686
  JK-Pump-1                  335.376       640.021         6.848         0.507         3.386
  JK-Pump-2                  738.115      1415.579        14.814         1.086         7.293
  XR-Pump-1                  362.171       611.911        27.582         3.335        16.912
  XR-Pump-2                  336.050       570.117        25.074         3.022        15.344
  XR-Pump-3                  336.050       570.117        25.074         3.022        15.344
  XR-Pump-4                  336.050       570.117        25.074         3.022        15.344
  

  Analysis begun on:  Thu Jul 15 19:51:15 2021
  Analysis ended on:  Thu Jul 15 19:51:17 2021
  Total elapsed time: 00:00:02