
  EPA STORM WATER MANAGEMENT MODEL - VERSION 5.1 (Build 5.3.0.dev0)
  --------------------------------------------------------------

  WARNING 04: minimum elevation drop used for Conduit WS02004404WS02004405
  WARNING 03: negative offset ignored for Link YS02001904YS02001907
  
  *********************************************************
  NOTE: The summary statistics displayed in this report are
  based on results found at every computational time step,  
  not just on results from each reporting time step.
  *********************************************************
  
  ****************
  Analysis Options
  ****************
  Flow Units ............... LPS
  Process Models:
    Rainfall/Runoff ........ YES
    RDII ................... NO
    Snowmelt ............... NO
    Groundwater ............ NO
    Flow Routing ........... YES
    Ponding Allowed ........ NO
    Water Quality .......... YES
  Infiltration Method ...... HORTON
  Flow Routing Method ...... DYNWAVE
  Surcharge Method ......... EXTRAN
  Starting Date ............ 08/28/2015 08:00:00
  Ending Date .............. 08/28/2015 15:50:00
  Antecedent Dry Days ...... 8.0
  Report Time Step ......... 00:01:00
  Wet Time Step ............ 00:01:00
  Dry Time Step ............ 00:01:00
  Routing Time Step ........ 5.00 sec
  Variable Time Step ....... YES
  Maximum Trials ........... 8
  Number of Threads ........ 4
  Head Tolerance ........... 0.001500 m
  
  
  **************************        Volume         Depth
  Runoff Quantity Continuity     hectare-m            mm
  **************************     ---------       -------
  Total Precipitation ......         5.556        12.164
  Evaporation Loss .........         0.000         0.000
  Infiltration Loss ........         1.002         2.194
  Surface Runoff ...........         3.688         8.075
  Final Storage ............         0.866         1.897
  Continuity Error (%) .....        -0.019
  
  
  **************************           COD            SS            TN            TP         NH4-N
  Runoff Quality Continuity             kg            kg            kg            kg            kg
  **************************    ----------    ----------    ----------    ----------    ----------
  Initial Buildup ..........     41378.656     70582.865      1804.177       168.684      1032.807
  Surface Buildup ..........        19.275        34.271         2.335         0.213         1.362
  Wet Deposition ...........         0.000         0.000         0.000         0.000         0.000
  Sweeping Removal .........         0.000         0.000         0.000         0.000         0.000
  Infiltration Loss ........        84.023       157.502         1.599         0.111         0.761
  BMP Removal ..............         0.000         0.000         0.000         0.000         0.000
  Surface Runoff ...........      3122.074      5752.154        60.620         4.098        28.771
  Remaining Buildup ........     38190.779     64705.500      1744.271       164.686      1004.628
  Continuity Error (%) .....         0.003         0.003         0.001         0.001         0.001
  
  
  **************************        Volume        Volume
  Flow Routing Continuity        hectare-m      10^6 ltr
  **************************     ---------     ---------
  Dry Weather Inflow .......         0.616         6.165
  Wet Weather Inflow .......         3.687        36.872
  Groundwater Inflow .......         0.000         0.000
  RDII Inflow ..............         0.000         0.000
  External Inflow ..........         0.102         1.024
  External Outflow .........         1.857        18.569
  Flooding Loss ............         2.133        21.329
  Evaporation Loss .........         0.000         0.000
  Exfiltration Loss ........         0.000         0.000
  Initial Stored Volume ....         0.076         0.761
  Final Stored Volume ......         0.618         6.182
  Continuity Error (%) .....        -2.810
  
  
  **************************           COD            SS            TN            TP         NH4-N
  Quality Routing Continuity            kg            kg            kg            kg            kg
  **************************    ----------    ----------    ----------    ----------    ----------
  Dry Weather Inflow .......      1541.201      2465.922       147.955        18.494        92.472
  Wet Weather Inflow .......      3121.466      5751.164        60.607         4.097        28.765
  Groundwater Inflow .......         0.000         0.000         0.000         0.000         0.000
  RDII Inflow ..............         0.000         0.000         0.000         0.000         0.000
  External Inflow ..........       183.418       293.469        17.608         2.201        11.005
  External Outflow .........      2224.177      3790.214       148.870        17.653        90.445
  Flooding Loss ............      1920.856      3509.484        50.182         4.377        26.426
  Exfiltration Loss ........         0.000         0.000         0.000         0.000         0.000
  Mass Reacted .............         0.000         0.000         0.000         0.000         0.000
  Initial Stored Mass ......         0.000         0.000         0.000         0.000         0.000
  Final Stored Mass ........       525.934       905.130        23.116         2.460        13.371
  Continuity Error (%) .....         3.614         3.592         1.769         1.221         1.512
  
  
  *************************
  Highest Continuity Errors
  *************************
  Node HS02004842 (14.53%)
  Node JK-storage (-12.40%)
  Node YS02001884 (11.75%)
  Node YSB1171 (2.74%)
  Node HS02004817 (2.73%)
  
  
  ***************************
  Time-Step Critical Elements
  ***************************
  Link WS02006252WS02006251 (52.77%)
  Link WS02006280WS02006229 (10.52%)
  Link YS02001793JiankangQianchi (8.16%)
  Link YS02006556YS02006558 (5.84%)
  Link WS02004404WS02004405 (5.65%)
  
  
  ********************************
  Highest Flow Instability Indexes
  ********************************
  Link WS02006113WS02006111 (48)
  Link YS02163601YS02164001 (43)
  Link YS02163301YS02001633 (42)
  Link YS02001629YS02163301 (42)
  Link YS02001619YS02001622 (41)
  
  
  *************************
  Routing Time Step Summary
  *************************
  Minimum Time Step           :     0.50 sec
  Average Time Step           :     1.36 sec
  Maximum Time Step           :     5.00 sec
  Percent in Steady State     :    -0.00
  Average Iterations per Step :     4.75
  Percent Not Converging      :    24.76
  
  
  ***************************
  Subcatchment Runoff Summary
  ***************************
  
  ------------------------------------------------------------------------------------------------------------------------------
                            Total      Total      Total      Total     Imperv       Perv      Total       Total     Peak  Runoff
                           Precip      Runon       Evap      Infil     Runoff     Runoff     Runoff      Runoff   Runoff   Coeff
  Subcatchment                 mm         mm         mm         mm         mm         mm         mm    10^6 ltr      LPS
  ------------------------------------------------------------------------------------------------------------------------------
  sub0                      12.16       0.00       0.00       0.65      11.27       0.20      11.47        0.01     1.99   0.943
  sub1                      12.16       0.00       0.00       1.12      10.73       0.22      10.95        0.07    14.96   0.900
  sub2                      12.16       0.00       0.00       4.23       7.58       0.27       7.85        0.07    15.08   0.646
  sub3                      12.16       0.00       0.00       4.29       7.54       0.21       7.75        0.17    34.61   0.637
  sub4                      12.16       0.00       0.00       1.19      10.57       0.14      10.71        0.22    42.34   0.881
  sub5                      12.16       0.00       0.00       0.69      11.21       0.16      11.38        0.13    26.18   0.935
  sub7                      12.16       0.00       0.00       0.88      11.01       0.22      11.22        0.04     7.95   0.923
  sub8                      12.16       0.00       0.00       0.89      11.00       0.21      11.20        0.07    14.89   0.921
  sub9                      12.16       0.00       0.00       0.89      10.99       0.21      11.20        0.05    11.18   0.921
  sub10                     12.16       0.00       0.00       0.79      11.10       0.18      11.28        0.12    25.49   0.928
  sub11                     12.16       0.00       0.00       0.78      11.12       0.19      11.31        0.13    27.35   0.930
  sub12                     12.16       0.00       0.00       1.27      10.53       0.31      10.85        0.09    20.52   0.892
  sub14                     12.16       0.00       0.00       0.89      10.99       0.20      11.20        0.11    22.08   0.920
  sub15                     12.16       0.00       0.00       3.28       8.45       0.37       8.82        0.15    32.49   0.725
  sub16                     12.16       0.00       0.00       3.51       8.11       0.50       8.61        0.09    20.36   0.708
  sub17                     12.16       0.00       0.00       3.41       8.23       0.48       8.71        0.07    16.72   0.716
  sub22                     12.16       0.00       0.00       4.80       6.89       0.43       7.32        0.46   102.62   0.602
  sub23                     12.16       0.00       0.00       4.05       7.62       0.45       8.07        0.38    85.35   0.663
  sub60                     12.16       0.00       0.00       1.42       8.82       0.04       8.86        2.69   336.84   0.729
  sub61                     12.16       0.00       0.00       2.01       8.94       0.06       9.00        2.78   399.45   0.740
  sub62                     12.16       0.00       0.00       0.92       9.73       0.05       9.78        3.01   415.79   0.804
  sub63                     12.16       0.00       0.00       3.46       7.82       0.06       7.88        2.39   361.21   0.648
  sub64                     12.16       0.00       0.00       1.78       8.47       0.04       8.51        2.59   320.97   0.699
  sub65                     12.16       0.00       0.00       1.54       8.61       0.04       8.65        2.66   326.54   0.711
  sub66                     12.16       0.00       0.00       3.49       7.26       0.04       7.30        2.24   290.53   0.600
  sub67                     12.16       0.00       0.00       0.91      10.24       0.07      10.31        3.18   494.23   0.848
  sub68                     12.16       0.00       0.00       1.64       9.40       0.06       9.46        2.91   432.52   0.778
  sub69                     12.16       0.00       0.00       1.73       9.72       0.09       9.82        2.29   383.95   0.807
  sub70                     12.16      10.02       0.00       6.98      13.09       0.56      13.65        3.12   394.93   0.615
  sub71                     12.16       0.00       0.00       0.93       9.48       0.05       9.53        2.25   296.34   0.783
  sub72                     12.16       0.00       0.00       0.83       7.62       0.02       7.64        1.56   151.13   0.628
  1                         12.16      13.29       0.00       1.37      14.64       3.94      18.57        4.36   399.24   0.730
  2                         12.16       0.00       0.00       3.02       2.89       1.65       4.55        1.82   245.52   0.374
  
  
  ****************************
  Subcatchment Washoff Summary
  ****************************
  
  ------------------------------------------------------------------------------------------
                                 COD            SS            TN            TP         NH4-N
  Subcatchment                    kg            kg            kg            kg            kg
  ------------------------------------------------------------------------------------------
  sub0                         2.176         4.147         0.037         0.003         0.018
  sub1                         9.268        18.138         0.173         0.012         0.083
  sub2                         5.563        10.570         0.119         0.008         0.054
  sub3                        13.747        25.918         0.288         0.019         0.132
  sub4                        21.530        42.606         0.429         0.026         0.205
  sub5                        21.300        41.103         0.378         0.029         0.183
  sub7                         4.748         9.424         0.090         0.006         0.043
  sub8                         7.142        14.500         0.143         0.008         0.069
  sub9                         6.100        12.212         0.118         0.007         0.057
  sub10                       17.532        34.266         0.321         0.023         0.155
  sub11                       17.086        33.770         0.320         0.022         0.154
  sub12                       14.392        27.890         0.260         0.019         0.125
  sub14                       13.021        25.823         0.247         0.016         0.119
  sub15                       16.182        30.744         0.313         0.023         0.146
  sub16                       10.318        19.555         0.197         0.015         0.092
  sub17                        9.471        17.789         0.175         0.014         0.082
  sub22                       48.821        90.813         0.932         0.070         0.434
  sub23                       29.138        56.181         0.627         0.041         0.287
  sub60                      203.703       376.194         4.083         0.248         1.956
  sub61                      251.300       461.579         4.699         0.320         2.261
  sub62                      262.762       491.326         5.157         0.324         2.474
  sub63                      185.047       334.594         3.739         0.261         1.731
  sub64                      253.867       452.095         4.687         0.339         2.235
  sub65                      260.106       465.192         4.834         0.344         2.309
  sub66                      146.558       263.078         3.037         0.197         1.417
  sub67                      388.205       718.566         6.963         0.510         3.363
  sub68                      276.714       513.393         5.318         0.356         2.539
  sub69                      247.676       464.012         4.658         0.325         2.225
  sub70                      413.256       778.342         8.287         0.572         3.877
  sub71                      173.740       327.842         3.597         0.206         1.720
  sub72                      136.329       239.316         2.558         0.174         1.230
  1                          280.724       531.718         5.751         0.398         2.660
  2                           35.485        61.812         1.030         0.062         0.437
  ------------------------------------------------------------------------------------------
  System                    3783.006      6994.507        73.566         4.996        34.873
  
  
  ******************
  Node Depth Summary
  ******************
  
  ---------------------------------------------------------------------------------
                                 Average  Maximum  Maximum  Time of Max    Reported
                                   Depth    Depth      HGL   Occurrence   Max Depth
  Node                 Type       Meters   Meters   Meters  days hr:min      Meters
  ---------------------------------------------------------------------------------
  WS02001211           JUNCTION     0.77     0.83     5.67     0  03:09        0.83
  WS02001212           JUNCTION     0.47     0.55     5.62     0  03:09        0.55
  WS02001213           JUNCTION     0.71     0.82     5.59     0  03:08        0.82
  WS02003069           JUNCTION     0.50     0.68     5.26     0  03:08        0.68
  WS02003072           JUNCTION     0.56     0.73     5.10     0  03:08        0.73
  WS02003073           JUNCTION     0.34     0.45     4.52     0  03:09        0.45
  WS02003060           JUNCTION     0.44     0.60     5.53     0  03:07        0.60
  WS02003066           JUNCTION     0.23     0.36     5.92     0  03:05        0.36
  WS02003059           JUNCTION     0.76     0.88     5.57     0  03:08        0.88
  WS02003067           JUNCTION     0.56     0.79     6.11     0  03:05        0.79
  WS02004401           JUNCTION     0.68     1.14     7.14     0  03:02        1.13
  WS02004402           JUNCTION     0.71     1.14     7.10     0  03:02        1.13
  WS02004403           JUNCTION     0.72     1.12     7.05     0  03:02        1.12
  WS02004404           JUNCTION     0.80     1.18     7.03     0  03:03        1.17
  WS02004406           JUNCTION     0.80     1.12     6.95     0  03:02        1.12
  WS02004409           JUNCTION     0.49     0.87     6.64     0  03:04        0.87
  WS02004410           JUNCTION     0.51     0.87     6.59     0  03:04        0.87
  WS02004411           JUNCTION     0.52     0.86     6.54     0  03:04        0.86
  WS02004412           JUNCTION     0.54     0.85     6.49     0  03:05        0.85
  WS02004413           JUNCTION     0.69     0.98     6.45     0  03:05        0.98
  WS02004405           JUNCTION     0.79     1.16     7.01     0  03:03        1.15
  WS02006109           JUNCTION     0.78     1.31     7.93     0  03:02        1.30
  WS02006110           JUNCTION     0.76     1.15     7.74     0  03:03        1.15
  WS02006111           JUNCTION     0.23     0.66     7.36     0  03:02        0.66
  WS02006112           JUNCTION     0.85     1.42     7.30     0  03:02        1.41
  WS02006113           JUNCTION     0.35     0.65     7.54     0  03:02        0.65
  WS02006115           JUNCTION     0.58     1.09     7.23     0  03:02        1.09
  WS02006116           JUNCTION     0.65     1.15     7.19     0  03:02        1.15
  WS02006230           JUNCTION     0.76     1.52     8.27     0  03:02        1.51
  WS02006231           JUNCTION     0.51     1.22     8.34     0  03:01        1.22
  WS02006232           JUNCTION     0.64     1.37     8.41     0  03:02        1.36
  WS02006234           JUNCTION     0.57     1.32     8.48     0  03:02        1.31
  WS02006235           JUNCTION     0.61     1.37     8.54     0  03:01        1.35
  WS02006238           JUNCTION     0.63     1.39     8.53     0  03:01        1.38
  WS02006240           JUNCTION     0.52     1.42     8.71     0  02:55        1.28
  WS02006242           JUNCTION     0.56     1.55     8.82     0  02:55        1.40
  WS02006243           JUNCTION     0.44     1.41     8.83     0  02:57        1.32
  WS02006245           JUNCTION     0.41     1.32     8.80     0  02:57        1.26
  WS02006247           JUNCTION     0.42     1.39     8.89     0  02:56        1.22
  WS02006248           JUNCTION     0.36     1.10     8.69     0  02:56        1.10
  WS02006249           JUNCTION     0.38     1.09     8.69     0  02:56        1.09
  WS02006239           JUNCTION     0.58     1.35     8.56     0  03:02        1.34
  WS02006251           JUNCTION     0.36     1.49     9.16     0  02:58        1.41
  WS02006252           JUNCTION     0.24     1.04     9.28     0  02:58        0.91
  WS02006253           JUNCTION     0.39     1.95     9.60     0  02:57        1.48
  WS02006256           JUNCTION     1.69     2.35     9.28     0  01:38        2.35
  WS02004138           JUNCTION     0.19     0.20     7.45     0  00:00        0.19
  WS02004139           JUNCTION     0.71     0.77     5.68     0  03:09        0.77
  WS02004407           JUNCTION     0.22     0.37     6.69     0  03:03        0.37
  WS02006228           JUNCTION     0.78     1.44     8.09     0  03:02        1.44
  WS02006229           JUNCTION     0.76     1.49     8.18     0  03:02        1.48
  WS02006280           JUNCTION     0.07     0.20     8.47     0  03:02        0.20
  WS02006284           JUNCTION     0.38     0.56     8.96     0  03:02        0.56
  WS02006287           JUNCTION     0.11     0.30     9.25     0  03:01        0.30
  WSF200               JUNCTION     0.22     0.40     5.64     0  03:05        0.40
  HS02004901           JUNCTION     0.13     0.29    10.12     0  03:01        0.29
  HS02004881           JUNCTION     0.01     0.05     9.08     0  02:58        0.04
  HS02004876           JUNCTION     0.05     0.13     9.16     0  02:58        0.13
  HS02004870           JUNCTION     0.02     0.07     9.35     0  03:01        0.07
  HS02004862           JUNCTION     0.02     0.08     9.46     0  03:01        0.08
  HS02004856           JUNCTION     0.08     0.13     9.55     0  03:01        0.13
  HS02004852           JUNCTION     0.01     0.05     9.56     0  03:01        0.05
  HS02004848           JUNCTION     0.01     0.05     9.65     0  03:01        0.05
  HS02004842           JUNCTION     0.34     0.38     9.65     0  03:01        0.38
  HS02004837           JUNCTION     0.03     0.07     9.65     0  03:01        0.07
  HS02004830           JUNCTION     0.04     0.08     9.55     0  03:01        0.08
  HS02004824           JUNCTION     0.03     0.06     9.47     0  03:01        0.06
  HS02004817           JUNCTION     0.45     0.61     9.45     0  03:01        0.61
  HS02004807           JUNCTION     0.13     0.28     9.45     0  03:01        0.28
  HS02004802           JUNCTION     0.17     0.31     9.44     0  03:01        0.31
  HS02004799           JUNCTION     0.13     0.35     9.56     0  03:01        0.35
  HS02004792           JUNCTION     0.04     0.15     9.67     0  03:01        0.15
  HS02004788           JUNCTION     0.03     0.11    10.01     0  03:01        0.11
  HS02004785           JUNCTION     0.05     0.18    10.09     0  03:01        0.18
  HS02004777           JUNCTION     0.16     0.31    10.11     0  03:01        0.31
  HS02004770           JUNCTION     0.13     0.29    10.12     0  03:01        0.29
  HS02004480           JUNCTION     0.09     0.28     9.52     0  03:01        0.28
  HS02004479           JUNCTION     0.13     0.32     9.52     0  03:01        0.32
  HS02004478           JUNCTION     0.07     0.20     9.42     0  03:01        0.20
  YS02001745           JUNCTION     0.73     0.91     8.43     0  03:19        0.91
  YS02001748           JUNCTION     1.12     1.71     8.79     0  02:28        1.35
  YS02001751           JUNCTION     1.31     1.56     8.43     0  03:14        1.55
  YS02001754           JUNCTION     1.56     1.83     8.44     0  03:19        1.82
  YS02001762           JUNCTION     1.76     2.05     8.45     0  03:29        2.02
  YS02001765           JUNCTION     1.71     2.00     8.45     0  03:29        1.98
  YS02001767           JUNCTION     1.68     1.95     8.44     0  03:29        1.93
  YS02001770           JUNCTION     1.67     1.92     8.42     0  03:29        1.91
  YS02001774           JUNCTION     1.74     1.98     8.40     0  03:08        1.97
  YS02001779           JUNCTION     1.48     1.68     8.37     0  02:18        1.68
  YS02001882           JUNCTION     0.55     1.64     8.35     0  02:47        1.61
  YS02001884           JUNCTION     0.65     1.73     8.35     0  02:47        1.71
  YS02001759           JUNCTION     1.79     2.08     8.44     0  03:29        2.07
  YS02001887           JUNCTION     0.73     1.80     8.34     0  02:47        1.79
  YS02001890           JUNCTION     0.76     1.81     8.32     0  02:47        1.81
  YS02001898           JUNCTION     0.52     1.57     8.31     0  02:47        1.55
  YS02001901           JUNCTION     0.64     1.68     8.29     0  02:47        1.67
  YS02001904           JUNCTION     0.62     1.64     8.27     0  02:59        1.63
  YS02001907           JUNCTION     0.95     1.96     8.25     0  02:47        1.96
  YS02001910           JUNCTION     0.74     1.78     8.29     0  02:48        1.78
  YS02001915           JUNCTION     0.54     1.61     8.33     0  02:48        1.59
  YS02001918           JUNCTION     0.29     1.30     8.36     0  02:48        1.28
  YS02001619           JUNCTION     1.27     1.61     8.54     0  02:27        1.51
  YS02001629           JUNCTION     1.62     1.85     8.40     0  02:26        1.84
  YS02001641           JUNCTION     1.72     1.94     8.37     0  03:29        1.93
  YS02001644           JUNCTION     1.72     1.92     8.35     0  02:35        1.92
  YS02001652           JUNCTION     1.57     2.16     8.76     0  02:19        1.93
  YS02001655           JUNCTION     1.33     2.20     9.05     0  02:38        1.80
  YS02001920           JUNCTION     0.38     1.38     8.39     0  02:48        1.36
  YS02001923           JUNCTION     0.22     1.14     8.40     0  02:48        1.13
  YS02001926           JUNCTION     0.28     0.98     8.43     0  02:48        0.91
  YS02001929           JUNCTION     0.16     0.72     8.42     0  02:48        0.69
  YS02001658           JUNCTION     1.07     2.30     9.44     0  02:40        1.64
  YS02001661           JUNCTION     0.84     2.46     9.86     0  02:40        1.45
  YS02001664           JUNCTION     0.37     0.57     8.50     0  02:39        0.57
  YS02001622           JUNCTION     1.29     1.62     8.52     0  02:27        1.52
  YS02001633           JUNCTION     1.71     1.95     8.40     0  02:54        1.93
  YS02001649           JUNCTION     1.77     2.05     8.44     0  02:38        2.05
  YS02001757           JUNCTION     1.89     2.18     8.44     0  03:16        2.17
  YS02001895           JUNCTION     0.52     1.56     8.31     0  02:47        1.55
  YS02001625           JUNCTION     1.58     1.78     8.38     0  02:26        1.78
  YS02163301           JUNCTION     1.65     1.89     8.41     0  02:27        1.87
  YS02163601           JUNCTION     1.76     1.99     8.39     0  02:35        1.98
  YS02164001           JUNCTION     1.70     1.92     8.38     0  02:59        1.91
  YS02001647           JUNCTION     1.55     1.80     8.41     0  02:40        1.79
  YSB1154              JUNCTION     0.27     0.47     9.52     0  03:01        0.47
  YSB6556              JUNCTION     0.16     0.35     9.52     0  03:01        0.35
  YSB1174              JUNCTION     0.22     0.41     9.52     0  03:01        0.41
  YSB1171              JUNCTION     0.42     0.62     9.52     0  03:01        0.62
  YS02006553           JUNCTION     0.95     1.97     8.25     0  02:58        1.96
  YS02006561           JUNCTION     0.31     1.10     7.76     0  02:47        1.08
  YS02006556           JUNCTION     0.92     1.92     8.23     0  02:56        1.92
  YS02006558           JUNCTION     0.96     1.96     8.23     0  03:00        1.96
  YS02001783           JUNCTION     0.53     1.49     7.63     0  02:47        1.46
  YS02001784           JUNCTION     0.55     1.71     7.78     0  02:43        1.41
  YS02001786           JUNCTION     0.49     1.96     7.99     0  02:43        1.25
  YS02001788           JUNCTION     0.41     2.28     8.26     0  02:43        1.12
  YS02001790           JUNCTION     0.53     1.96     7.60     0  02:43        1.29
  YS02001791           JUNCTION     0.48     1.71     7.18     0  02:43        1.27
  YS02001793           JUNCTION     0.66     2.22     7.06     0  01:57        1.80
  WSC                  OUTFALL      0.34     0.45     1.12     0  03:09        0.45
  JK-storage           STORAGE      3.01     5.80     6.60     0  02:01        5.80
  CC-storage           STORAGE      1.14     1.42     8.42     0  03:16        1.42
  XR-storage           STORAGE      6.55     7.72     5.72     0  02:52        7.72
  
  
  *******************
  Node Inflow Summary
  *******************
  
  -------------------------------------------------------------------------------------------------
                                  Maximum  Maximum                  Lateral       Total        Flow
                                  Lateral    Total  Time of Max      Inflow      Inflow     Balance
                                   Inflow   Inflow   Occurrence      Volume      Volume       Error
  Node                 Type           LPS      LPS  days hr:min    10^6 ltr    10^6 ltr     Percent
  -------------------------------------------------------------------------------------------------
  WS02001211           JUNCTION      7.35   391.15     0  03:15       0.207          10       0.397
  WS02001212           JUNCTION      0.00   394.75     0  03:16           0        9.99       0.225
  WS02001213           JUNCTION      0.00   398.34     0  03:16           0        9.96       0.287
  WS02003069           JUNCTION      0.32  1214.13     0  03:07     0.00902        18.6       0.166
  WS02003072           JUNCTION      0.00  1214.05     0  03:08           0        18.6       0.205
  WS02003073           JUNCTION      1.82  1215.94     0  03:08      0.0514        18.6       0.234
  WS02003060           JUNCTION     16.53  1213.78     0  03:07       0.466        18.7       0.156
  WS02003066           JUNCTION      0.00   828.48     0  03:05           0        8.29       0.044
  WS02003059           JUNCTION      0.00   402.63     0  03:15           0        9.94       0.394
  WS02003067           JUNCTION      0.00   828.12     0  03:05           0         8.3       0.093
  WS02004401           JUNCTION      0.00   832.72     0  03:03           0        8.48       0.187
  WS02004402           JUNCTION      0.00   833.12     0  03:03           0        8.46       0.183
  WS02004403           JUNCTION      0.00   832.76     0  03:03           0        8.45       0.171
  WS02004404           JUNCTION      0.16   833.07     0  03:03     0.00457        8.44       0.112
  WS02004406           JUNCTION      0.00   832.67     0  03:03           0        8.41       0.327
  WS02004409           JUNCTION      0.00   832.09     0  03:03           0        8.38       0.133
  WS02004410           JUNCTION      0.00   829.48     0  03:04           0        8.37       0.160
  WS02004411           JUNCTION      0.00   828.42     0  03:04           0        8.36       0.171
  WS02004412           JUNCTION      0.00   828.06     0  03:04           0        8.34       0.195
  WS02004413           JUNCTION      0.00   828.01     0  03:05           0        8.33       0.304
  WS02004405           JUNCTION      0.04   834.12     0  03:03     0.00107        8.43       0.202
  WS02006109           JUNCTION      1.23   818.31     0  03:02      0.0347        8.48       0.124
  WS02006110           JUNCTION      0.00   818.24     0  03:02           0        8.47       0.152
  WS02006111           JUNCTION      0.00   818.08     0  03:03           0        8.45       0.020
  WS02006112           JUNCTION     16.72   832.36     0  03:03      0.0747        8.53       0.237
  WS02006113           JUNCTION      0.00   818.17     0  03:02           0        8.46       0.051
  WS02006115           JUNCTION      0.00   832.55     0  03:03           0        8.51       0.173
  WS02006116           JUNCTION      0.00   832.35     0  03:03           0        8.49       0.138
  WS02006230           JUNCTION     10.28   531.66     0  05:21        0.29         6.3       0.095
  WS02006231           JUNCTION      0.00   521.39     0  05:12           0        6.01       0.032
  WS02006232           JUNCTION      0.00   521.36     0  05:21           0        6.02       0.100
  WS02006234           JUNCTION      0.00   521.50     0  05:21           0        6.02       0.004
  WS02006235           JUNCTION      0.00   522.64     0  05:12           0        6.08       0.073
  WS02006238           JUNCTION      0.00   331.04     0  06:03           0        2.62      -0.024
  WS02006240           JUNCTION      0.00   343.25     0  06:02           0        2.53       0.041
  WS02006242           JUNCTION      0.00   352.09     0  06:02           0        2.51       0.069
  WS02006243           JUNCTION      0.00   361.25     0  06:01           0         2.5      -0.144
  WS02006245           JUNCTION      0.00   366.98     0  06:01           0        2.51       0.199
  WS02006247           JUNCTION      0.00   371.26     0  06:01           0        2.51       0.030
  WS02006248           JUNCTION      0.00   376.12     0  06:01           0        2.51      -0.123
  WS02006249           JUNCTION      0.00   489.20     0  03:00           0         2.7       0.155
  WS02006239           JUNCTION      0.00   334.78     0  06:03           0        2.57      -0.121
  WS02006251           JUNCTION      0.08   486.59     0  03:00     0.00217        2.75      -0.020
  WS02006252           JUNCTION      0.00   400.00     0  03:30           0        2.28       0.013
  WS02006253           JUNCTION      1.99   259.62     0  02:57     0.00928       0.467      -0.039
  WS02006256           JUNCTION      0.00   983.00     0  02:10           0        9.61       0.009
  WS02004138           JUNCTION      0.00   380.00     0  00:00           0        9.86       0.069
  WS02004139           JUNCTION      0.32   394.45     0  00:00     0.00905        9.86       0.457
  WS02004407           JUNCTION      0.00   832.60     0  03:03           0        8.39       0.054
  WS02006228           JUNCTION      0.00   817.39     0  03:02           0        8.45       0.092
  WS02006229           JUNCTION      0.00   818.39     0  03:00           0        8.46       0.092
  WS02006280           JUNCTION      0.00   413.65     0  03:02           0        2.17       0.006
  WS02006284           JUNCTION      0.10   413.60     0  03:02      0.0027        2.17       0.042
  WS02006287           JUNCTION      0.00   413.25     0  03:01           0        2.17       0.033
  WSF200               JUNCTION      0.00   828.59     0  03:05           0        8.29       0.038
  HS02004901           JUNCTION     20.36    20.36     0  03:01      0.0902      0.0904       1.991
  HS02004881           JUNCTION      7.95    87.69     0  02:59      0.0378        0.41       0.090
  HS02004876           JUNCTION     14.96    76.76     0  03:01      0.0728       0.373       0.148
  HS02004870           JUNCTION     14.89    62.16     0  03:01      0.0716         0.3       0.037
  HS02004862           JUNCTION     15.28    47.69     0  03:01      0.0788       0.229       0.077
  HS02004856           JUNCTION     11.18    32.73     0  03:01      0.0539       0.152       0.965
  HS02004852           JUNCTION      0.00    21.94     0  03:01           0      0.0979       0.059
  HS02004848           JUNCTION     34.61    34.61     0  03:01       0.174       0.174       0.028
  HS02004842           JUNCTION      0.00    12.41     0  03:01           0      0.0895      16.998
  HS02004837           JUNCTION     31.84    43.95     0  03:01       0.303        0.38       0.214
  HS02004830           JUNCTION      0.15    43.86     0  03:01     0.00423        0.37       0.334
  HS02004824           JUNCTION     42.39    85.90     0  03:01       0.225       0.594       0.091
  HS02004817           JUNCTION      0.60    86.29     0  03:01      0.0169        0.61       2.809
  HS02004807           JUNCTION     27.35   112.32     0  03:01       0.131       0.726       0.604
  HS02004802           JUNCTION      0.00   111.37     0  03:01           0       0.723       0.549
  HS02004799           JUNCTION     22.08   258.94     0  03:01       0.107        1.24       0.223
  HS02004792           JUNCTION    102.90   238.01     0  03:01        0.47        1.14       0.036
  HS02004788           JUNCTION     34.16   135.95     0  03:01       0.199       0.669       0.058
  HS02004785           JUNCTION      0.15   103.52     0  03:01     0.00423       0.471       0.106
  HS02004777           JUNCTION      0.03   104.16     0  03:01    0.000846       0.472       1.115
  HS02004770           JUNCTION     85.35   105.11     0  03:01       0.385       0.473       0.659
  HS02004480           JUNCTION      0.00   302.46     0  03:01           0        1.46       0.076
  HS02004479           JUNCTION      0.00    44.91     0  03:02           0       0.232       0.317
  HS02004478           JUNCTION      0.00   413.11     0  03:01           0        2.17       0.014
  YS02001745           JUNCTION    336.84   419.33     0  02:26        2.69         2.7       0.422
  YS02001748           JUNCTION      0.04   582.03     0  02:26     0.00127        2.69       0.790
  YS02001751           JUNCTION      0.01   341.88     0  03:00     0.00031        2.65       0.900
  YS02001754           JUNCTION      0.26   342.16     0  03:01     0.00733        2.64       0.949
  YS02001762           JUNCTION      0.00   291.38     0  02:38           0        1.81       1.173
  YS02001765           JUNCTION      0.00   291.15     0  02:38           0        1.82       1.351
  YS02001767           JUNCTION      0.54   291.31     0  02:38      0.0151        1.84       1.968
  YS02001770           JUNCTION    415.94   534.35     0  03:01        3.01        3.47       0.914
  YS02001774           JUNCTION      0.00   535.05     0  03:01           0        2.07       1.215
  YS02001779           JUNCTION      0.01   535.36     0  03:01    0.000141        2.04       0.759
  YS02001882           JUNCTION      0.00    20.74     0  02:43           0      0.0165      16.611
  YS02001884           JUNCTION      0.00    38.54     0  02:43           0      0.0534      13.320
  YS02001759           JUNCTION    399.49   575.18     0  02:39        2.78        4.11       0.560
  YS02001887           JUNCTION    494.68   495.39     0  03:01        3.19        3.22       0.267
  YS02001890           JUNCTION      0.00   495.67     0  03:00           0        3.18       0.297
  YS02001898           JUNCTION      0.00   495.23     0  03:01           0        3.16       0.101
  YS02001901           JUNCTION      0.00   495.54     0  03:01           0        3.16       0.228
  YS02001904           JUNCTION      0.00   495.49     0  03:01           0        3.16       0.203
  YS02001907           JUNCTION      0.00   950.36     0  03:01           0        7.02       0.343
  YS02001910           JUNCTION      0.00   501.26     0  02:49           0        3.87       0.308
  YS02001915           JUNCTION    296.36   501.38     0  02:49        2.25         3.9       0.162
  YS02001918           JUNCTION      0.00   253.73     0  02:49           0        1.67       0.114
  YS02001619           JUNCTION    290.53   290.53     0  03:01        2.24        2.24       0.547
  YS02001629           JUNCTION      0.00   217.09     0  02:17           0        1.69       1.740
  YS02001641           JUNCTION      0.00   395.94     0  02:35           0        4.25       0.497
  YS02001644           JUNCTION    321.01  1311.32     0  03:01        2.59        10.6       0.245
  YS02001652           JUNCTION      0.00   378.26     0  03:01           0        2.34       1.011
  YS02001655           JUNCTION      0.15   387.46     0  02:18     0.00434        2.37       1.018
  YS02001920           JUNCTION      2.87   253.06     0  02:49      0.0809        1.66       0.190
  YS02001923           JUNCTION      0.04   302.01     0  02:49     0.00106        1.57       0.035
  YS02001926           JUNCTION      0.05   233.69     0  02:48     0.00147        1.56       0.195
  YS02001929           JUNCTION    151.13   151.13     0  03:01        1.56        1.56       0.037
  YS02001658           JUNCTION      0.00   602.65     0  02:23           0        2.41       0.949
  YS02001661           JUNCTION      0.00   646.69     0  02:41           0         2.7      -0.335
  YS02001664           JUNCTION    361.21   361.21     0  03:01        2.38        2.69       0.245
  YS02001622           JUNCTION      0.00   291.46     0  03:01           0        2.22       1.447
  YS02001633           JUNCTION    326.74   395.46     0  02:35        2.66        4.31       0.750
  YS02001649           JUNCTION      0.00   827.06     0  02:35           0        6.14       0.610
  YS02001757           JUNCTION      0.00  1578.36     0  02:35           0        8.78       1.059
  YS02001895           JUNCTION      0.00   494.52     0  03:01           0        3.17       0.167
  YS02001625           JUNCTION      0.00   290.83     0  03:01           0        2.19       1.801
  YS02163301           JUNCTION      0.00   203.99     0  02:26           0        1.67       1.461
  YS02163601           JUNCTION      0.11   395.47     0  02:35      0.0031        4.27       0.708
  YS02164001           JUNCTION      0.00   395.70     0  02:35           0        4.25       0.479
  YS02001647           JUNCTION      0.00   655.34     0  03:19           0        5.35       0.533
  YSB1154              JUNCTION     26.18    26.18     0  03:01       0.129        0.13       1.131
  YSB6556              JUNCTION      0.00    25.82     0  03:01           0        0.13       0.969
  YSB1174              JUNCTION     20.52    20.52     0  03:01      0.0948      0.0953       1.369
  YSB1171              JUNCTION      0.00    45.30     0  03:01           0       0.231       2.820
  YS02006553           JUNCTION      0.00   703.85     0  03:31           0        6.58       0.235
  YS02006561           JUNCTION      0.00   981.33     0  03:14           0        9.45       0.008
  YS02006556           JUNCTION      0.00   703.97     0  03:31           0        6.58       0.171
  YS02006558           JUNCTION    433.40   982.87     0  03:19        2.93        9.49       0.054
  YS02001783           JUNCTION      0.00   981.50     0  03:19           0        9.45       0.026
  YS02001784           JUNCTION      1.06   982.86     0  03:19      0.0299        9.48       0.037
  YS02001786           JUNCTION      0.06   982.73     0  03:19     0.00159        9.48       0.036
  YS02001788           JUNCTION      0.07   982.88     0  03:19       0.002        9.48       0.021
  YS02001790           JUNCTION      0.15   983.07     0  03:19     0.00437        9.48       0.005
  YS02001791           JUNCTION      0.00   982.91     0  03:16           0        9.48       0.003
  YS02001793           JUNCTION      0.00   983.39     0  03:19           0        9.48      -0.015
  WSC                  OUTFALL       0.00  1216.09     0  03:09           0        18.6       0.000
  JK-storage           STORAGE       0.00   990.84     0  02:41           0        9.63     -11.032
  CC-storage           STORAGE       0.00  1577.44     0  02:35           0        6.39       1.027
  XR-storage           STORAGE     844.76   844.76     0  03:01        11.8        12.4      -0.001
  
  
  **********************
  Node Surcharge Summary
  **********************
  
  Surcharging occurs when water rises above the top of the highest conduit.
  ---------------------------------------------------------------------
                                               Max. Height   Min. Depth
                                   Hours       Above Crown    Below Rim
  Node                 Type      Surcharged         Meters       Meters
  ---------------------------------------------------------------------
  WS02004401           JUNCTION        0.20          0.138        1.522
  WS02004402           JUNCTION        0.22          0.141        1.599
  WS02004403           JUNCTION        0.22          0.124        1.906
  WS02004404           JUNCTION        0.45          0.180        2.600
  WS02004406           JUNCTION        0.27          0.117        2.333
  WS02004405           JUNCTION        0.30          0.159        2.641
  WS02006109           JUNCTION        2.70          0.491        1.329
  WS02006110           JUNCTION        1.40          0.244        1.606
  WS02006112           JUNCTION        1.81          0.419        1.261
  WS02006115           JUNCTION        0.15          0.082        2.168
  WS02006116           JUNCTION        0.16          0.087        2.203
  WS02006230           JUNCTION        0.79          0.440        1.130
  WS02006231           JUNCTION        1.07          0.508        1.022
  WS02006232           JUNCTION        2.44          0.669        0.811
  WS02006234           JUNCTION        1.54          0.599        0.641
  WS02006235           JUNCTION        1.84          0.661        0.629
  WS02006238           JUNCTION        1.95          0.670        0.760
  WS02006240           JUNCTION        1.20          0.708        0.682
  WS02006242           JUNCTION        1.24          0.820        0.000
  WS02006243           JUNCTION        1.00          0.696        0.074
  WS02006245           JUNCTION        0.92          0.605        0.245
  WS02006247           JUNCTION        0.92          0.679        0.081
  WS02006248           JUNCTION        0.81          0.380        0.000
  WS02006249           JUNCTION        0.83          0.390        0.000
  WS02006239           JUNCTION        1.36          0.609        0.681
  WS02006251           JUNCTION        0.55          0.463        0.717
  WS02006252           JUNCTION        1.16          0.641        0.459
  WS02006253           JUNCTION        0.56          0.913        1.567
  WS02006256           JUNCTION        6.32          2.050        0.000
  WS02006228           JUNCTION        2.65          0.613        1.587
  YS02001748           JUNCTION        5.31          0.630        0.560
  YS02001751           JUNCTION        5.49          0.555        0.645
  YS02001754           JUNCTION        5.70          0.779        0.371
  YS02001762           JUNCTION        5.87          1.048        0.102
  YS02001765           JUNCTION        5.84          0.996        0.104
  YS02001767           JUNCTION        5.81          0.948        0.082
  YS02001770           JUNCTION        5.80          0.892        0.028
  YS02001774           JUNCTION        5.86          0.983        0.067
  YS02001779           JUNCTION        5.68          0.680        0.000
  YS02001882           JUNCTION        0.84          0.636        0.194
  YS02001884           JUNCTION        0.87          0.671        0.199
  YS02001759           JUNCTION        5.89          1.079        0.131
  YS02001887           JUNCTION        0.96          0.752        0.198
  YS02001890           JUNCTION        1.00          0.760        0.000
  YS02001898           JUNCTION        0.79          0.543        0.197
  YS02001901           JUNCTION        0.91          0.681        0.189
  YS02001904           JUNCTION        0.89          0.640        0.210
  YS02001907           JUNCTION        1.78          0.950        0.000
  YS02001910           JUNCTION        1.05          0.785        0.315
  YS02001915           JUNCTION        0.82          0.608        0.392
  YS02001918           JUNCTION        0.65          0.296        0.514
  YS02001619           JUNCTION        5.47          0.610        0.000
  YS02001629           JUNCTION        5.48          0.470        0.000
  YS02001641           JUNCTION        5.85          0.936        0.164
  YS02001644           JUNCTION        5.85          0.920        0.000
  YS02001652           JUNCTION        5.73          1.130        0.000
  YS02001655           JUNCTION        5.51          1.200        0.000
  YS02001920           JUNCTION        0.68          0.380        0.760
  YS02001658           JUNCTION        5.34          1.300        0.000
  YS02001661           JUNCTION        0.21          1.390        0.000
  YS02001622           JUNCTION        5.50          0.620        0.000
  YS02001633           JUNCTION        5.83          0.926        0.134
  YS02001649           JUNCTION        5.87          1.050        0.000
  YS02001757           JUNCTION        5.98          1.177        0.033
  YS02001895           JUNCTION        0.81          0.563        0.187
  YS02001625           JUNCTION        5.76          0.780        0.000
  YS02163301           JUNCTION        5.81          0.892        0.138
  YS02163601           JUNCTION        5.87          0.989        0.091
  YS02164001           JUNCTION        5.84          0.918        0.182
  YS02001647           JUNCTION        5.75          0.802        0.098
  YS02006553           JUNCTION        1.89          0.966        0.224
  YS02006561           JUNCTION        0.71          0.301        0.849
  YS02006556           JUNCTION        1.31          0.883        0.467
  YS02006558           JUNCTION        1.26          0.864        0.536
  YS02001783           JUNCTION        0.98          0.693        0.907
  YS02001784           JUNCTION        0.93          0.909        0.581
  YS02001786           JUNCTION        0.83          1.164        0.266
  YS02001788           JUNCTION        0.77          1.480        0.000
  YS02001790           JUNCTION        1.77          1.157        0.000
  YS02001791           JUNCTION        1.88          0.908        1.012
  YS02001793           JUNCTION        2.20          1.224        1.376
  
  
  *********************
  Node Flooding Summary
  *********************
  
  Flooding refers to all water that overflows a node, whether it ponds or not.
  --------------------------------------------------------------------------
                                                             Total   Maximum
                                 Maximum   Time of Max       Flood    Ponded
                        Hours       Rate    Occurrence      Volume     Depth
  Node                 Flooded       LPS   days hr:min    10^6 ltr    Meters
  --------------------------------------------------------------------------
  WS02006242              0.01     44.01      0  02:55       0.000     0.000
  WS02006248              0.01    109.25      0  02:56       0.000     0.000
  WS02006249              0.53    268.38      0  02:58       0.191     0.000
  WS02006256              3.54    810.41      0  03:02       6.097     0.000
  YS02001779              3.01    535.08      0  03:01       2.019     0.000
  YS02001890              0.01     14.78      0  02:47       0.000     0.000
  YS02001907              0.54    411.12      0  03:01       0.431     0.000
  YS02001619              0.01     14.58      0  02:27       0.000     0.000
  YS02001629              0.01     30.74      0  02:27       0.000     0.000
  YS02001644              5.09   1311.12      0  03:01       9.028     0.000
  YS02001652              0.01     60.33      0  02:19       0.000     0.000
  YS02001655              0.01     19.27      0  02:38       0.000     0.000
  YS02001658              0.01     12.16      0  02:40       0.000     0.000
  YS02001661              0.01    147.10      0  02:40       0.000     0.000
  YS02001622              0.01     16.52      0  02:27       0.000     0.000
  YS02001649              0.03     40.62      0  02:40       0.001     0.000
  YS02001625              1.20    236.55      0  03:01       0.466     0.000
  YS02001788              0.01    127.44      0  02:43       0.000     0.000
  YS02001790              0.01     35.61      0  02:43       0.000     0.000
  JK-storage              0.95    965.09      0  02:49       1.162     0.000
  XR-storage              3.09    464.76      0  03:01       1.932     0.000
  
  
  **********************
  Storage Volume Summary
  **********************
  
  --------------------------------------------------------------------------------------------------
                         Average     Avg  Evap Exfil       Maximum     Max    Time of Max    Maximum
                          Volume    Pcnt  Pcnt  Pcnt        Volume    Pcnt     Occurrence    Outflow
  Storage Unit           1000 m3    Full  Loss  Loss       1000 m3    Full    days hr:min        LPS
  --------------------------------------------------------------------------------------------------
  JK-storage               0.151      52     0     0         0.291     100       0  02:01     983.00
  CC-storage               3.182      20     0     0         3.949      25       0  03:16     400.00
  XR-storage               0.786      85     0     0         0.926     100       0  02:52     380.00
  
  
  ***********************
  Outfall Loading Summary
  ***********************
  
  ---------------------------------------------------------------------------------------------------------------------------------
                         Flow       Avg       Max       Total         Total         Total         Total         Total         Total
                         Freq      Flow      Flow      Volume           COD            SS            TN            TP         NH4-N
  Outfall Node           Pcnt       LPS       LPS    10^6 ltr            kg            kg            kg            kg            kg
  ---------------------------------------------------------------------------------------------------------------------------------
  WSC                  100.00    728.67   1216.09      18.568      2224.368      3790.526       148.887        17.655        90.456
  ---------------------------------------------------------------------------------------------------------------------------------
  System               100.00    728.67   1216.09      18.568      2224.368      3790.526       148.887        17.655        90.456
  
  
  ********************
  Link Flow Summary
  ********************
  
  -----------------------------------------------------------------------------
                                 Maximum  Time of Max   Maximum    Max/    Max/
                                  |Flow|   Occurrence   |Veloc|    Full    Full
  Link                 Type          LPS  days hr:min     m/sec    Flow   Depth
  -----------------------------------------------------------------------------
  WS02003066WSF200     CONDUIT    828.59     0  03:05      2.94    0.14    0.30
  WS02006287WS02006284 CONDUIT    413.50     0  03:02      2.04    0.19    0.30
  WS02006284WS02006280 CONDUIT    413.65     0  03:02      2.28    0.17    0.28
  WS02006280WS02006229 CONDUIT    413.65     0  03:02      3.62    0.09    0.25
  WS02006229WS02006228 CONDUIT    817.39     0  03:02      1.63    2.71    1.00
  WS02006256WS02006235 CONDUIT    257.32     0  02:02      3.64    2.72    1.00
  WS02006253WS02006251 CONDUIT    177.46     0  02:57      0.60    0.53    1.00
  WS02006252WS02006251 CONDUIT    406.28     0  03:30      3.23    1.49    1.00
  WS02006251WS02006249 CONDUIT    489.20     0  03:00      1.27    1.41    1.00
  WS02006249WS02006248 CONDUIT    376.12     0  06:01      1.19    2.06    1.00
  WS02006248WS02006247 CONDUIT    371.26     0  06:01      1.16    0.81    1.00
  WS02006247WS02006245 CONDUIT    366.98     0  06:01      1.14    2.91    1.00
  WS02006245WS02006243 CONDUIT    361.25     0  06:01      1.18    1.07    1.00
  WS02006243WS02006242 CONDUIT    352.09     0  06:02      1.07    0.75    1.00
  WS02006242WS02006240 CONDUIT    343.25     0  06:02      1.00    1.36    1.00
  WS02006240WS02006239 CONDUIT    334.78     0  06:03      1.04    1.05    1.00
  WS02006239WS02006238 CONDUIT    331.04     0  06:03      0.95    1.06    1.00
  WS02006238WS02006235 CONDUIT    330.21     0  06:04      0.94    0.74    1.00
  WS02006235WS02006234 CONDUIT    521.50     0  05:21      1.36    5.50    1.00
  WS02006234WS02006232 CONDUIT    521.36     0  05:21      1.35    1.05    1.00
  WS02006232WS02006231 CONDUIT    521.39     0  05:12      1.35    1.09    1.00
  WS02006231WS02006230 CONDUIT    521.38     0  05:21      1.37    7.91    1.00
  WS02006230WS02006229 CONDUIT    532.21     0  05:10      1.38   11.84    1.00
  WS02006228WS02006109 CONDUIT    817.08     0  03:02      1.63    3.57    1.00
  WS02006116WS02004401 CONDUIT    832.72     0  03:03      1.06    1.15    1.00
  WS02006115WS02006116 CONDUIT    832.35     0  03:03      1.06    1.07    1.00
  WS02006113WS02006111 CONDUIT    818.08     0  03:03      2.64    0.98    0.82
  WS02006112WS02006115 CONDUIT    832.55     0  03:03      1.06    0.49    1.00
  WS02006111WS02006112 CONDUIT    819.73     0  03:03      1.79    0.39    0.90
  WS02006110WS02006113 CONDUIT    818.17     0  03:02      1.79    0.74    0.91
  WS02006109WS02006110 CONDUIT    818.24     0  03:02      1.63    1.57    1.00
  WS02004411WS02004412 CONDUIT    828.06     0  03:04      1.16    1.18    0.85
  WS02004401WS02004402 CONDUIT    833.12     0  03:03      1.06    1.00    1.00
  WS02004413WS02003067 CONDUIT    828.12     0  03:05      1.42    0.35    0.70
  WS02004412WS02004413 CONDUIT    828.01     0  03:05      1.10    0.55    0.91
  WS02004410WS02004411 CONDUIT    828.42     0  03:04      1.15    1.13    0.86
  WS02004409WS02004410 CONDUIT    829.48     0  03:04      1.15    1.07    0.87
  WS02004407WS02004409 CONDUIT    832.09     0  03:03      1.67    0.29    0.62
  WS02004406WS02004407 CONDUIT    832.60     0  03:03      1.45    0.37    0.69
  WS02004405WS02004406 CONDUIT    832.67     0  03:03      1.06    1.64    1.00
  WS02004404WS02004405 CONDUIT    834.08     0  03:03      1.06    8.17    1.00
  WS02004403WS02004404 CONDUIT    832.91     0  03:03      1.06    0.60    1.00
  WS02004402WS02004403 CONDUIT    832.76     0  03:03      1.06    1.20    1.00
  WS02004139WS02001211 CONDUIT    383.80     0  03:15      0.90    0.49    0.63
  WS02004138WS02004139 CONDUIT    394.13     0  00:00      3.62    0.08    0.46
  WS02003067WS02003066 CONDUIT    828.48     0  03:05      1.54    0.27    0.48
  WS02001213WS02003059 CONDUIT    402.63     0  03:15      0.89    0.66    0.84
  WS02001212WS02001213 CONDUIT    398.34     0  03:16      1.32    0.61    0.53
  WS02001211WS02001212 CONDUIT    394.75     0  03:16      0.78    0.30    0.69
  WS02003072WS02003073 CONDUIT   1214.12     0  03:08      1.89    2.62    0.55
  WS02003069WS02003072 CONDUIT   1214.05     0  03:08      1.76    0.58    0.59
  WS02003060WS02003069 CONDUIT   1213.81     0  03:07      1.98    0.48    0.53
  WS02003059WS02003060 CONDUIT    408.17     0  03:15      0.95    0.27    0.74
  HS02004901HS02004770 CONDUIT     20.52     0  03:01      0.07    0.08    0.42
  HS02004876HS02004881 CONDUIT     79.92     0  02:59      0.97    0.85    0.13
  HS02004870HS02004876 CONDUIT     61.90     0  03:01      0.65    0.04    0.14
  HS02004842HS02004848 CONDUIT     12.41     0  03:01      0.06    0.01    0.31
  HS02004837HS02004842 CONDUIT     12.98     0  03:02      0.42    0.01    0.32
  HS02004830HS02004837 CONDUIT     43.71     0  03:01      0.57    0.04    0.11
  HS02004824HS02004830 CONDUIT     43.67     0  03:01      0.59    0.06    0.11
  HS02004817HS02004824 CONDUIT     85.69     0  03:01      0.26    0.04    0.48
  HS02004770HS02004777 CONDUIT    104.13     0  03:01      0.35    0.19    0.43
  HS02004799HS02004480 CONDUIT    258.31     0  03:01      0.83    0.33    0.44
  HS02004792HS02004799 CONDUIT    237.06     0  03:01      0.95    0.15    0.36
  HS02004788HS02004792 CONDUIT    135.44     0  03:01      1.06    0.09    0.18
  HS02004785HS02004788 CONDUIT    103.22     0  03:02      0.71    0.78    0.21
  HS02004777HS02004785 CONDUIT    103.37     0  03:01      0.42    0.13    0.35
  HS02004480HS02004478 CONDUIT    302.31     0  03:01      1.26    1.27    0.34
  HS02004479HS02004480 CONDUIT     46.31     0  03:02      0.32    0.04    0.43
  HS02004862HS02004870 CONDUIT     47.43     0  03:01      0.66    0.05    0.10
  HS02004848HS02004852 CONDUIT     21.94     0  03:01      0.45    0.02    0.07
  HS02004856HS02004862 CONDUIT     32.48     0  03:01      0.48    0.03    0.10
  HS02004852HS02004856 CONDUIT     21.85     0  03:02      0.25    0.02    0.13
  HS02004802HS02004478 CONDUIT    111.53     0  03:02      0.45    0.10    0.36
  HS02004478WS02006287 CONDUIT    413.25     0  03:01      1.75    0.12    0.26
  HS02004817HS02004807 CONDUIT     86.14     0  03:01      0.19    0.05    0.63
  HS02004807HS02004802 CONDUIT    111.37     0  03:01      0.38    0.21    0.42
  YS02001759YS02001757 CONDUIT    574.94     0  02:39      0.73    0.41    1.00
  YS02001762YS02001759 CONDUIT    291.24     0  02:38      0.37    0.34    1.00
  YS02001765YS02001762 CONDUIT    291.38     0  02:38      0.37    0.27    1.00
  YS02001770YS02001767 CONDUIT    290.78     0  02:38      0.37    1.15    1.00
  YS02001774YS02001770 CONDUIT    535.05     0  03:01      0.68    0.34    1.00
  YS02001779YS02001774 CONDUIT    535.36     0  03:01      0.68    0.27    1.00
  YS02001649YS02001757 CONDUIT    826.90     0  02:35      1.05    0.50    1.00
  YS02001767YS02001765 CONDUIT    291.15     0  02:38      0.37    0.37    1.00
  YS02006561YS02001783 CONDUIT    981.50     0  03:19      2.21    0.51    1.00
  YS02001783YS02001784 CONDUIT    981.80     0  03:19      1.95    1.35    1.00
  YS02001784YS02001785 CONDUIT    982.67     0  03:19      1.95    2.29    1.00
  YS02001788YS02001790 CONDUIT    982.91     0  03:19      2.47    0.72    1.00
  YS02001790YS02001791 CONDUIT    982.91     0  03:16      3.08    1.07    1.00
  YS02001791YS02001793 CONDUIT    983.39     0  03:19      6.12    0.42    1.00
  YS02001910YS02001907 CONDUIT    501.76     0  02:49      0.64    0.28    1.00
  YS02001786YS02001788 CONDUIT    982.81     0  03:19      2.34    1.89    1.00
  YS02001915YS02001910 CONDUIT    501.26     0  02:49      0.64    0.25    1.00
  YS02001918YS02001915 CONDUIT    255.79     0  02:49      0.44    0.14    1.00
  YS02001923YS02001920 CONDUIT    250.19     0  02:49      0.72    0.11    1.00
  YS02001926YS02001923 CONDUIT    301.97     0  02:49      0.83    0.43    0.92
  YS02001929YS02001926 CONDUIT    229.99     0  02:49      0.89    0.11    0.84
  YS02001920YS02001918 CONDUIT    253.73     0  02:49      0.70    0.25    1.00
  YS02001629YS02163301 CONDUIT    203.99     0  02:26      0.26    0.25    1.00
  YS02001619YS02001622 CONDUIT    291.46     0  03:01      0.61    0.43    1.00
  YS02001622YS02001625 CONDUIT    290.83     0  03:01      0.37    0.16    1.00
  YS02001625YS02001629 CONDUIT    217.09     0  02:17      0.28    0.10    1.00
  YS02163301YS02001633 CONDUIT    205.04     0  02:26      0.26    0.19    1.00
  YS02163601YS02164001 CONDUIT    395.70     0  02:35      0.50    0.35    1.00
  YS02164001YS02001641 CONDUIT    395.94     0  02:35      0.50    0.54    1.00
  YS02001641YS02001644 CONDUIT    395.68     0  02:35      0.50    1.28    1.00
  YS02001647YS02001649 CONDUIT    655.34     0  03:19      0.83    0.35    1.00
  YS02006553YS02006556 CONDUIT    703.97     0  03:31      0.90    0.60    1.00
  YS02006556YS02006558 CONDUIT    704.75     0  03:31      0.90    0.56    1.00
  YSB6556YSB1171       CONDUIT     25.77     0  03:03      0.09    0.03    0.70
  YS02001907YS02006553 CONDUIT    703.85     0  03:31      0.78    0.83    1.00
  YS02006558YS02006561 CONDUIT    981.33     0  03:14      3.57    2.17    1.00
  YS02001633YS02163601 CONDUIT    395.36     0  02:35      0.50    0.42    1.00
  YS02001644YS02001647 CONDUIT    655.28     0  03:19      0.83    0.38    1.00
  YS02001745YS02001748 CONDUIT    581.98     0  02:26      1.47    0.22    0.96
  YS02001748YS02001751 CONDUIT    341.87     0  03:00      1.06    0.17    1.00
  YS02001751YS02001754 CONDUIT    341.90     0  03:01      0.92    0.16    1.00
  YS02001754YS02001757 CONDUIT    341.92     0  03:01      0.44    0.14    1.00
  YS02001882YS02001884 CONDUIT     20.74     0  02:43      0.13    0.02    1.00
  YS02001884YS02001887 CONDUIT     38.54     0  02:43      0.09    0.05    1.00
  YS02001890YS02001895 CONDUIT    494.52     0  03:01      0.63    0.23    1.00
  YS02001895YS02001898 CONDUIT    495.23     0  03:01      0.63    0.86    1.00
  YS02001898YS02001901 CONDUIT    495.54     0  03:01      0.63    0.32    1.00
  YS02001901YS02001904 CONDUIT    495.49     0  03:01      0.63    0.77    1.00
  YS02001904YS02001907 CONDUIT    495.74     0  03:01      0.63    0.17    1.00
  YS02001887YS02001890 CONDUIT    495.67     0  03:00      0.63    0.85    1.00
  YS02001652YS02001649 CONDUIT    380.20     0  03:01      0.63    0.19    1.00
  YS02001655YS02001652 CONDUIT    378.26     0  03:01      0.98    0.18    1.00
  YS02001658YS02001655 CONDUIT    387.30     0  02:18      1.22    0.16    1.00
  YS02001661YS02001658 CONDUIT    602.65     0  02:23      1.55    0.24    1.00
  YS02001664YS02001661 CONDUIT    646.69     0  02:41      1.43    0.20    0.75
  YSB1154YSB6556       CONDUIT     25.82     0  03:01      0.17    0.05    0.59
  YSB1174YSB1171       CONDUIT     20.15     0  03:01      0.07    0.03    0.70
  YSB1171HS02004479    CONDUIT     44.91     0  03:02      0.54    0.03    0.55
  HS02004881HS02006253 CONDUIT    129.47     0  02:58      2.15    0.03    0.54
  YS02001793JiankangQianchi CONDUIT    990.84     0  02:41     18.36    0.08    1.00
  YS02001757CaochengTiaoxuchi CONDUIT   1577.44     0  02:35      2.02    0.69    1.00
  WSF200WS02003060     CONDUIT    828.90     0  03:05      1.86    0.18    0.42
  1                    CONDUIT   1216.09     0  03:09      3.50    0.42    0.45
  CC-Pump-1            PUMP       200.00     0  03:30              1.00
  CC-Pump-2            PUMP       200.00     0  03:30              1.00
  JK-Pump-1            PUMP       300.00     0  02:10              1.00
  JK-Pump-2            PUMP       683.00     0  02:10              1.00
  XR-Pump-1            PUMP        95.00     0  00:00              1.00
  XR-Pump-2            PUMP        95.00     0  00:00              1.00
  XR-Pump-3            PUMP        95.00     0  00:00              1.00
  XR-Pump-4            PUMP        95.00     0  00:00              1.00
  
  
  ***************************
  Flow Classification Summary
  ***************************
  
  -------------------------------------------------------------------------------------
                      Adjusted    ---------- Fraction of Time in Flow Class ---------- 
                       /Actual         Up    Down  Sub   Sup   Up    Down  Norm  Inlet 
  Conduit               Length    Dry  Dry   Dry   Crit  Crit  Crit  Crit  Ltd   Ctrl  
  -------------------------------------------------------------------------------------
  WS02003066WSF200        1.00   0.01  0.07  0.00  0.00  0.92  0.00  0.00  0.51  0.00
  WS02006287WS02006284    1.00   0.03  0.02  0.00  0.58  0.38  0.00  0.00  0.62  0.00
  WS02006284WS02006280    1.00   0.04  0.00  0.00  0.00  0.00  0.00  0.96  0.00  0.00
  WS02006280WS02006229    1.00   0.04  0.00  0.00  0.00  0.02  0.00  0.94  0.02  0.00
  WS02006229WS02006228    1.00   0.00  0.00  0.00  1.00  0.00  0.00  0.00  0.00  0.00
  WS02006256WS02006235    1.00   0.06  0.00  0.00  0.94  0.00  0.00  0.00  0.00  0.00
  WS02006253WS02006251    1.00   0.01  0.02  0.00  0.96  0.00  0.01  0.00  0.00  0.00
  WS02006252WS02006251    1.00   0.22  0.00  0.00  0.08  0.00  0.70  0.00  0.00  0.00
  WS02006251WS02006249    1.00   0.00  0.00  0.00  1.00  0.00  0.00  0.00  0.32  0.00
  WS02006249WS02006248    1.00   0.00  0.00  0.00  0.86  0.00  0.13  0.00  0.00  0.00
  WS02006248WS02006247    1.00   0.01  0.00  0.00  0.98  0.00  0.00  0.01  0.17  0.00
  WS02006247WS02006245    1.00   0.01  0.00  0.00  0.96  0.00  0.00  0.03  0.00  0.00
  WS02006245WS02006243    1.00   0.01  0.00  0.00  0.91  0.00  0.00  0.08  0.01  0.00
  WS02006243WS02006242    1.00   0.01  0.00  0.00  0.95  0.00  0.00  0.04  0.12  0.00
  WS02006242WS02006240    1.00   0.01  0.03  0.00  0.95  0.00  0.01  0.00  0.00  0.00
  WS02006240WS02006239    1.00   0.05  0.00  0.00  0.94  0.00  0.00  0.02  0.01  0.00
  WS02006239WS02006238    1.00   0.05  0.00  0.00  0.94  0.00  0.00  0.01  0.00  0.00
  WS02006238WS02006235    1.00   0.05  0.01  0.00  0.94  0.00  0.00  0.00  0.00  0.00
  WS02006235WS02006234    1.00   0.06  0.00  0.00  0.93  0.00  0.01  0.00  0.00  0.00
  WS02006234WS02006232    1.00   0.06  0.00  0.00  0.94  0.00  0.00  0.00  0.00  0.00
  WS02006232WS02006231    1.00   0.06  0.00  0.00  0.94  0.00  0.00  0.00  0.00  0.00
  WS02006231WS02006230    1.00   0.06  0.00  0.00  0.61  0.00  0.34  0.00  0.00  0.00
  WS02006230WS02006229    1.00   0.00  0.00  0.00  0.99  0.00  0.00  0.01  0.00  0.00
  WS02006228WS02006109    1.00   0.00  0.00  0.00  1.00  0.00  0.00  0.00  0.00  0.00
  WS02006116WS02004401    1.00   0.03  0.00  0.00  0.97  0.00  0.00  0.00  0.00  0.00
  WS02006115WS02006116    1.00   0.03  0.00  0.00  0.94  0.00  0.00  0.03  0.00  0.00
  WS02006113WS02006111    1.00   0.02  0.00  0.00  0.03  0.95  0.00  0.00  0.20  0.00
  WS02006112WS02006115    1.00   0.02  0.01  0.00  0.97  0.00  0.00  0.00  0.00  0.00
  WS02006111WS02006112    1.00   0.02  0.00  0.00  0.98  0.00  0.00  0.00  0.88  0.00
  WS02006110WS02006113    1.00   0.00  0.01  0.00  0.98  0.00  0.00  0.00  0.00  0.00
  WS02006109WS02006110    1.00   0.00  0.00  0.00  0.99  0.00  0.00  0.00  0.00  0.00
  WS02004411WS02004412    1.00   0.07  0.00  0.00  0.93  0.00  0.00  0.00  0.00  0.00
  WS02004401WS02004402    1.00   0.03  0.00  0.00  0.97  0.00  0.00  0.00  0.04  0.00
  WS02004413WS02003067    1.00   0.07  0.01  0.00  0.00  0.00  0.92  0.00  0.00  0.00
  WS02004412WS02004413    1.00   0.07  0.00  0.00  0.93  0.00  0.00  0.00  0.00  0.00
  WS02004410WS02004411    1.00   0.06  0.00  0.00  0.94  0.00  0.00  0.00  0.00  0.00
  WS02004409WS02004410    1.00   0.06  0.00  0.00  0.94  0.00  0.00  0.00  0.00  0.00
  WS02004407WS02004409    1.00   0.06  0.00  0.00  0.92  0.01  0.00  0.00  0.79  0.00
  WS02004406WS02004407    1.00   0.00  0.06  0.00  0.94  0.00  0.00  0.00  0.00  0.00
  WS02004405WS02004406    1.00   0.00  0.00  0.00  1.00  0.00  0.00  0.00  0.04  0.00
  WS02004404WS02004405    1.00   0.00  0.00  0.00  1.00  0.00  0.00  0.00  0.00  0.00
  WS02004403WS02004404    1.00   0.00  0.03  0.00  0.97  0.00  0.00  0.00  0.04  0.00
  WS02004402WS02004403    1.00   0.03  0.00  0.00  0.97  0.00  0.00  0.00  0.00  0.00
  WS02004139WS02001211    1.00   0.00  0.00  0.00  1.00  0.00  0.00  0.00  0.00  0.00
  WS02004138WS02004139    1.00   0.00  0.00  0.00  1.00  0.00  0.00  0.00  1.00  0.00
  WS02003067WS02003066    1.00   0.08  0.00  0.00  0.92  0.00  0.00  0.00  0.00  0.00
  WS02001213WS02003059    1.00   0.00  0.00  0.00  1.00  0.00  0.00  0.00  0.00  0.00
  WS02001212WS02001213    1.00   0.00  0.00  0.00  0.91  0.00  0.09  0.00  0.00  0.00
  WS02001211WS02001212    1.00   0.00  0.00  0.00  1.00  0.00  0.00  0.00  0.00  0.00
  WS02003072WS02003073    1.00   0.00  0.00  0.00  0.00  0.00  0.00  1.00  0.00  0.00
  WS02003069WS02003072    1.00   0.00  0.00  0.00  1.00  0.00  0.00  0.00  0.10  0.00
  WS02003060WS02003069    1.00   0.00  0.00  0.00  0.99  0.01  0.00  0.00  0.07  0.00
  WS02003059WS02003060    1.00   0.00  0.00  0.00  1.00  0.00  0.00  0.00  0.00  0.00
  HS02004901HS02004770    1.00   0.04  0.00  0.00  0.96  0.00  0.00  0.00  0.00  0.00
  HS02004876HS02004881    1.00   0.01  0.00  0.00  0.90  0.09  0.00  0.00  0.00  0.00
  HS02004870HS02004876    1.00   0.00  0.00  0.00  1.00  0.00  0.00  0.00  0.95  0.00
  HS02004842HS02004848    1.00   0.00  0.04  0.00  0.96  0.00  0.00  0.00  0.55  0.00
  HS02004837HS02004842    1.00   0.00  0.00  0.00  1.00  0.00  0.00  0.00  0.11  0.00
  HS02004830HS02004837    1.00   0.00  0.00  0.00  1.00  0.00  0.00  0.00  0.99  0.00
  HS02004824HS02004830    1.00   0.00  0.00  0.00  1.00  0.00  0.00  0.00  0.00  0.00
  HS02004817HS02004824    1.00   0.00  0.00  0.00  1.00  0.00  0.00  0.00  1.00  0.00
  HS02004770HS02004777    1.00   0.00  0.04  0.00  0.96  0.00  0.00  0.00  0.02  0.00
  HS02004799HS02004480    1.00   0.00  0.01  0.00  0.96  0.00  0.03  0.00  0.00  0.00
  HS02004792HS02004799    1.00   0.00  0.00  0.00  1.00  0.00  0.00  0.00  0.98  0.00
  HS02004788HS02004792    1.00   0.00  0.00  0.00  1.00  0.00  0.00  0.00  0.98  0.00
  HS02004785HS02004788    1.00   0.00  0.00  0.00  1.00  0.00  0.00  0.00  0.00  0.00
  HS02004777HS02004785    1.00   0.00  0.00  0.00  1.00  0.00  0.00  0.00  0.12  0.00
  HS02004480HS02004478    1.00   0.04  0.00  0.00  0.65  0.00  0.00  0.31  0.00  0.00
  HS02004479HS02004480    1.00   0.01  0.00  0.00  0.99  0.00  0.00  0.00  0.11  0.00
  HS02004862HS02004870    1.00   0.00  0.00  0.00  1.00  0.00  0.00  0.00  0.03  0.00
  HS02004848HS02004852    1.00   0.04  0.00  0.00  0.96  0.00  0.00  0.00  0.62  0.00
  HS02004856HS02004862    1.00   0.00  0.05  0.00  0.95  0.00  0.00  0.00  0.83  0.00
  HS02004852HS02004856    1.00   0.04  0.00  0.00  0.96  0.00  0.00  0.00  0.85  0.00
  HS02004802HS02004478    1.00   0.04  0.00  0.00  0.96  0.00  0.00  0.00  0.02  0.00
  HS02004478WS02006287    1.00   0.04  0.00  0.00  0.72  0.23  0.00  0.00  0.64  0.00
  HS02004817HS02004807    1.00   0.00  0.04  0.00  0.96  0.00  0.00  0.00  0.01  0.00
  HS02004807HS02004802    1.00   0.04  0.00  0.00  0.96  0.00  0.00  0.00  0.00  0.00
  YS02001759YS02001757    1.00   0.00  0.00  0.00  1.00  0.00  0.00  0.00  0.16  0.00
  YS02001762YS02001759    1.00   0.00  0.00  0.00  1.00  0.00  0.00  0.00  0.03  0.00
  YS02001765YS02001762    1.00   0.00  0.00  0.00  1.00  0.00  0.00  0.00  0.13  0.00
  YS02001770YS02001767    1.00   0.00  0.00  0.00  1.00  0.00  0.00  0.00  0.00  0.00
  YS02001774YS02001770    1.00   0.00  0.04  0.00  0.96  0.00  0.00  0.00  0.02  0.00
  YS02001779YS02001774    1.00   0.00  0.00  0.00  1.00  0.00  0.00  0.00  0.18  0.00
  YS02001649YS02001757    1.00   0.00  0.00  0.00  1.00  0.00  0.00  0.00  0.16  0.00
  YS02001767YS02001765    1.00   0.00  0.00  0.00  1.00  0.00  0.00  0.00  0.00  0.00
  YS02006561YS02001783    1.00   0.05  0.00  0.00  0.38  0.57  0.00  0.00  0.48  0.00
  YS02001783YS02001784    1.00   0.00  0.05  0.00  0.95  0.00  0.00  0.00  0.00  0.00
  YS02001784YS02001785    1.00   0.00  0.00  0.00  1.00  0.00  0.00  0.00  0.17  0.00
  YS02001788YS02001790    1.00   0.00  0.00  0.00  0.38  0.62  0.00  0.00  0.39  0.00
  YS02001790YS02001791    1.00   0.00  0.00  0.00  0.34  0.66  0.00  0.00  0.46  0.00
  YS02001791YS02001793    1.00   0.00  0.00  0.00  0.38  0.62  0.00  0.00  0.03  0.00
  YS02001910YS02001907    1.00   0.00  0.00  0.00  0.99  0.00  0.00  0.01  0.12  0.00
  YS02001786YS02001788    1.00   0.00  0.00  0.00  0.36  0.64  0.00  0.00  0.00  0.00
  YS02001915YS02001910    1.00   0.00  0.00  0.00  0.99  0.01  0.00  0.00  0.15  0.00
  YS02001918YS02001915    1.00   0.00  0.00  0.00  0.99  0.00  0.00  0.00  0.55  0.00
  YS02001923YS02001920    1.00   0.00  0.00  0.00  1.00  0.00  0.00  0.00  0.84  0.00
  YS02001926YS02001923    1.00   0.00  0.02  0.00  0.14  0.00  0.84  0.00  0.00  0.00
  YS02001929YS02001926    1.00   0.00  0.04  0.00  0.96  0.00  0.00  0.00  0.77  0.00
  YS02001920YS02001918    1.00   0.00  0.00  0.00  1.00  0.00  0.00  0.00  0.00  0.00
  YS02001629YS02163301    1.00   0.04  0.00  0.00  0.96  0.00  0.00  0.00  0.00  0.00
  YS02001619YS02001622    1.00   0.04  0.00  0.00  0.96  0.00  0.00  0.00  0.00  0.00
  YS02001622YS02001625    1.00   0.04  0.00  0.00  0.96  0.00  0.00  0.00  0.04  0.00
  YS02001625YS02001629    1.00   0.04  0.02  0.00  0.93  0.00  0.02  0.00  0.00  0.00
  YS02163301YS02001633    1.00   0.00  0.04  0.00  0.96  0.00  0.00  0.00  0.00  0.00
  YS02163601YS02164001    1.00   0.00  0.02  0.00  0.98  0.00  0.00  0.00  0.00  0.00
  YS02164001YS02001641    1.00   0.00  0.02  0.00  0.98  0.00  0.00  0.00  0.06  0.00
  YS02001641YS02001644    1.00   0.00  0.00  0.00  1.00  0.00  0.00  0.00  0.00  0.00
  YS02001647YS02001649    1.00   0.00  0.05  0.00  0.95  0.00  0.00  0.00  0.01  0.00
  YS02006553YS02006556    1.00   0.00  0.00  0.00  1.00  0.00  0.00  0.00  0.03  0.00
  YS02006556YS02006558    1.00   0.00  0.00  0.00  1.00  0.00  0.00  0.00  0.00  0.00
  YSB6556YSB1171          1.00   0.01  0.02  0.00  0.97  0.00  0.00  0.00  0.00  0.00
  YS02001907YS02006553    1.00   0.00  0.01  0.00  0.99  0.00  0.00  0.00  0.00  0.00
  YS02006558YS02006561    1.00   0.05  0.00  0.00  0.13  0.82  0.00  0.00  0.51  0.00
  YS02001633YS02163601    1.00   0.00  0.00  0.00  1.00  0.00  0.00  0.00  0.15  0.00
  YS02001644YS02001647    1.00   0.00  0.05  0.00  0.95  0.00  0.00  0.00  0.00  0.00
  YS02001745YS02001748    1.00   0.00  0.00  0.00  0.90  0.01  0.00  0.09  0.04  0.00
  YS02001748YS02001751    1.00   0.00  0.00  0.00  0.97  0.03  0.00  0.00  0.15  0.00
  YS02001751YS02001754    1.00   0.00  0.00  0.00  0.94  0.00  0.00  0.06  0.02  0.00
  YS02001754YS02001757    1.00   0.00  0.00  0.00  1.00  0.00  0.00  0.00  0.18  0.00
  YS02001882YS02001884    1.00   0.04  0.00  0.00  0.96  0.00  0.00  0.00  0.00  0.00
  YS02001884YS02001887    1.00   0.02  0.01  0.00  0.97  0.00  0.00  0.00  0.00  0.00
  YS02001890YS02001895    1.00   0.00  0.04  0.00  0.96  0.00  0.00  0.00  0.00  0.00
  YS02001895YS02001898    1.00   0.04  0.00  0.00  0.94  0.00  0.01  0.00  0.00  0.00
  YS02001898YS02001901    1.00   0.04  0.00  0.00  0.96  0.00  0.00  0.00  0.01  0.00
  YS02001901YS02001904    1.00   0.04  0.00  0.00  0.95  0.00  0.00  0.00  0.00  0.00
  YS02001904YS02001907    1.00   0.00  0.04  0.00  0.96  0.00  0.00  0.00  0.00  0.00
  YS02001887YS02001890    1.00   0.00  0.00  0.00  0.99  0.00  0.01  0.00  0.00  0.00
  YS02001652YS02001649    1.00   0.00  0.00  0.00  1.00  0.00  0.00  0.00  0.16  0.00
  YS02001655YS02001652    1.00   0.00  0.00  0.00  0.94  0.00  0.00  0.06  0.02  0.00
  YS02001658YS02001655    1.00   0.00  0.04  0.00  0.93  0.03  0.00  0.00  0.08  0.00
  YS02001661YS02001658    1.00   0.04  0.00  0.00  0.90  0.06  0.00  0.00  0.08  0.00
  YS02001664YS02001661    1.00   0.04  0.00  0.00  0.91  0.05  0.00  0.00  0.19  0.00
  YSB1154YSB6556          1.00   0.03  0.00  0.00  0.97  0.00  0.00  0.00  0.01  0.00
  YSB1174YSB1171          1.00   0.01  0.01  0.00  0.97  0.00  0.00  0.00  0.00  0.00
  YSB1171HS02004479       1.00   0.01  0.00  0.00  0.99  0.00  0.00  0.00  0.10  0.00
  HS02004881HS02006253    1.00   0.02  0.00  0.00  0.43  0.03  0.00  0.52  0.29  0.00
  YS02001793JiankangQianchi    1.00   0.00  0.00  0.00  0.71  0.29  0.00  0.00  0.43  0.00
  YS02001757CaochengTiaoxuchi    1.00   0.00  0.07  0.00  0.93  0.00  0.00  0.00  0.00  0.00
  WSF200WS02003060        1.00   0.00  0.01  0.00  0.97  0.03  0.00  0.00  0.49  0.00
  1                       1.00   0.00  0.00  0.00  0.00  1.00  0.00  0.00  0.52  0.00
  
  
  *************************
  Conduit Surcharge Summary
  *************************
  
  ----------------------------------------------------------------------------
                                                           Hours        Hours 
                         --------- Hours Full --------   Above Full   Capacity
  Conduit                Both Ends  Upstream  Dnstream   Normal Flow   Limited
  ----------------------------------------------------------------------------
  WS02006229WS02006228        2.65      2.78      2.65      4.09         2.65
  WS02006256WS02006235        5.48      5.48      6.32      4.36         0.01
  WS02006253WS02006251        0.77      0.78      0.80      0.01         0.01
  WS02006252WS02006251        0.74      0.74      1.16      0.97         0.01
  WS02006251WS02006249        0.79      0.79      0.83      0.55         0.44
  WS02006249WS02006248        0.81      0.81      0.83      1.57         0.01
  WS02006248WS02006247        0.84      0.84      0.92      0.01         0.01
  WS02006247WS02006245        0.92      0.94      0.92      2.22         0.88
  WS02006245WS02006243        0.94      0.94      1.00      0.06         0.08
  WS02006243WS02006242        1.03      1.03      1.24      0.01         0.01
  WS02006242WS02006240        1.20      1.20      1.31      0.80         0.01
  WS02006240WS02006239        1.23      1.23      1.36      0.29         0.25
  WS02006239WS02006238        1.60      1.60      1.94      0.46         0.30
  WS02006238WS02006235        1.93      1.93      2.13      0.01         0.01
  WS02006235WS02006234        1.54      1.54      1.84      5.35         0.01
[...]
  YS02001765YS02001762        5.84      5.84      5.87      0.01         0.01
  YS02001770YS02001767        5.81      5.81      5.81      0.19         0.72
  YS02001774YS02001770        5.80      5.80      5.86      0.01         0.01
  YS02001779YS02001774        5.68      5.68      5.86      0.01         0.01
  YS02001649YS02001757        5.87      5.87      5.98      0.01         0.01
  YS02001767YS02001765        5.81      5.81      5.84      0.01         0.01
  YS02006561YS02001783        0.71      0.71      0.98      0.01         0.01
  YS02001783YS02001784        0.93      0.98      0.93      1.40         0.93
  YS02001784YS02001785        0.83      0.93      0.83      2.39         0.82
  YS02001788YS02001790        0.77      0.77      1.77      0.01         0.01
  YS02001790YS02001791        1.77      1.77      1.88      0.83         0.79
  YS02001791YS02001793        1.88      1.88      2.31      0.01         0.01
  YS02001910YS02001907        1.05      1.05      1.78      0.01         0.01
  YS02001786YS02001788        0.77      0.83      0.77      1.99         0.77
  YS02001915YS02001910        0.82      0.82      1.05      0.01         0.01
  YS02001918YS02001915        0.65      0.65      0.82      0.01         0.01
  YS02001923YS02001920        0.45      0.45      0.68      0.01         0.01
  YS02001920YS02001918        0.65      0.65      0.68      0.01         0.01
  YS02001629YS02163301        5.80      5.80      5.81      0.01         0.01
  YS02001619YS02001622        5.47      5.47      5.50      0.01         0.01
  YS02001622YS02001625        5.50      5.50      5.76      0.01         0.01
  YS02001625YS02001629        5.48      5.48      5.76      0.01         0.01
  YS02163301YS02001633        5.81      5.81      5.84      0.01         0.01
  YS02163601YS02164001        5.84      5.84      5.87      0.01         0.01
  YS02164001YS02001641        5.84      5.84      5.85      0.01         0.03
  YS02001641YS02001644        5.85      5.85      5.85      1.52         1.52
  YS02001647YS02001649        5.75      5.75      5.87      0.01         0.01
  YS02006553YS02006556        1.31      1.31      1.89      0.01         0.01
  YS02006556YS02006558        1.50      1.50      1.96      0.01         0.01
  YS02001907YS02006553        2.41      2.41      2.67      0.01         0.01
  YS02006558YS02006561        0.80      1.26      0.80      2.24         0.80
  YS02001633YS02163601        5.83      5.83      5.87      0.01         0.01
  YS02001644YS02001647        5.75      5.75      5.85      0.01         0.01
  YS02001745YS02001748        0.01      0.01      5.30      0.01         0.01
  YS02001748YS02001751        5.36      5.36      5.49      0.01         0.01
  YS02001751YS02001754        5.49      5.49      5.70      0.01         0.01
  YS02001754YS02001757        5.74      5.74      5.98      0.01         0.01
  YS02001882YS02001884        0.84      0.84      0.87      0.01         0.01
  YS02001884YS02001887        0.93      0.93      0.96      0.01         0.01
  YS02001890YS02001895        0.81      0.81      1.08      0.01         0.01
  YS02001895YS02001898        0.79      0.79      0.81      0.01         0.01
  YS02001898YS02001901        0.81      0.81      0.91      0.01         0.01
  YS02001901YS02001904        0.89      0.89      0.91      0.01         0.01
  YS02001904YS02001907        0.89      0.89      1.90      0.01         0.01
  YS02001887YS02001890        1.00      1.00      1.03      0.01         0.01
  YS02001652YS02001649        5.76      5.76      5.87      0.01         0.01
  YS02001655YS02001652        5.51      5.51      5.73      0.01         0.01
  YS02001658YS02001655        5.33      5.33      5.51      0.01         0.01
  YS02001661YS02001658        0.18      0.18      5.33      0.01         0.01
  YS02001664YS02001661        0.01      0.01      0.86      0.01         0.01
  HS02004881HS02006253        0.01      0.01      0.56      0.01         0.01
  YS02001793JiankangQianchi        2.20      2.20      5.47      0.01         0.01
  YS02001757CaochengTiaoxuchi        5.21      5.21      5.98      0.01         0.01
  
  
  ***************
  Pumping Summary
  ***************
  
  ---------------------------------------------------------------------------------------------------------
                                                  Min       Avg       Max     Total     Power    % Time Off
                        Percent   Number of      Flow      Flow      Flow    Volume     Usage    Pump Curve
  Pump                 Utilized   Start-Ups       LPS       LPS       LPS  10^6 ltr     Kw-hr    Low   High
  ---------------------------------------------------------------------------------------------------------
  CC-Pump-1               42.54           5      0.00    125.35    200.00     1.440      1.34    0.0    0.0
  CC-Pump-2               25.52           5      0.00    107.51    200.00     0.840      0.99    0.0    0.0
  JK-Pump-1               59.58           5      0.00    223.14    300.00     3.636     57.81    0.0    0.0
  JK-Pump-2               51.07           4      0.00    415.91    683.00     5.974     89.53    0.0   95.9
  XR-Pump-1              100.00           1      0.00     95.00     95.00     2.679     27.15    0.0    0.0
  XR-Pump-2               95.74           3      0.00     92.08     95.00     2.394     21.17    0.0    0.0
  XR-Pump-3               95.74           3      0.00     92.08     95.00     2.394     21.17    0.0    0.0
  XR-Pump-4               95.74           3      0.00     92.08     95.00     2.394     21.17    0.0    0.0
  
  
  ***************************
  Link Pollutant Load Summary
  ***************************
  
  ------------------------------------------------------------------------------------------
                                 COD            SS            TN            TP         NH4-N
  Link                            kg            kg            kg            kg            kg
  ------------------------------------------------------------------------------------------
  WS02003066WSF200           691.303      1273.161        19.064         1.713        10.154
  WS02006287WS02006284       268.077       498.251         9.347         0.943         5.214
  WS02006284WS02006280       268.562       499.034         9.393         0.949         5.243
  WS02006280WS02006229       268.527       498.970         9.391         0.948         5.242
  WS02006229WS02006228       678.749      1250.996        18.386         1.633         9.750
  WS02006256WS02006235       190.576       347.838         4.348         0.346         2.219
  WS02006253WS02006251        52.491       101.200         1.161         0.086         0.575
  WS02006252WS02006251       194.997       353.836         4.110         0.300         2.027
  WS02006251WS02006249       239.926       441.320         5.118         0.376         2.528
  WS02006249WS02006248       222.246       408.881         4.742         0.348         2.342
  WS02006248WS02006247       222.552       409.445         4.748         0.349         2.345
  WS02006247WS02006245       222.478       409.314         4.745         0.348         2.344
  WS02006245WS02006243       222.132       408.735         4.732         0.347         2.337
  WS02006243WS02006242       222.513       409.438         4.741         0.348         2.341
  WS02006242WS02006240       223.072       410.430         4.752         0.348         2.346
  WS02006240WS02006239       224.873       413.631         4.801         0.353         2.372
  WS02006239WS02006238       227.435       417.969         4.881         0.360         2.416
  WS02006238WS02006235       229.419       421.303         4.940         0.366         2.448
  WS02006235WS02006234       412.210       755.511         9.065         0.691         4.547
  WS02006234WS02006232       411.819       754.787         9.059         0.691         4.545
  WS02006232WS02006231       411.585       754.367         9.052         0.690         4.541
  WS02006231WS02006230       411.449       754.141         9.048         0.690         4.539
  WS02006230WS02006229       410.878       753.156         9.032         0.689         4.530
  WS02006228WS02006109       678.379      1250.368        18.357         1.629         9.732
  WS02006116WS02004401       695.135      1279.828        19.218         1.729        10.243
  WS02006115WS02006116       695.067      1279.717        19.218         1.729        10.243
  WS02006113WS02006111       685.970      1262.515        19.092         1.721        10.192
  WS02006112WS02006115       695.563      1280.543        19.252         1.733        10.263
  WS02006111WS02006112       686.005      1262.567        19.091         1.721        10.191
  WS02006110WS02006113       686.176      1262.841        19.108         1.723        10.202
  WS02006109WS02006110       686.895      1264.002        19.164         1.730        10.236
  WS02004411WS02004412       693.456      1276.845        19.173         1.725        10.219
  WS02004401WS02004402       694.675      1279.054        19.190         1.725        10.226
  WS02004413WS02003067       691.553      1273.609        19.072         1.713        10.158
  WS02004412WS02004413       693.013      1276.073        19.154         1.723        10.208
  WS02004410WS02004411       693.708      1277.286        19.183         1.726        10.225
  WS02004409WS02004410       694.041      1277.860        19.200         1.728        10.234
  WS02004407WS02004409       694.122      1278.011        19.200         1.728        10.234
  WS02004406WS02004407       693.962      1277.752        19.188         1.726        10.227
  WS02004405WS02004406       695.352      1280.049        19.289         1.738        10.289
  WS02004404WS02004405       694.995      1279.506        19.248         1.733        10.263
  WS02004403WS02004404       693.989      1277.885        19.151         1.721        10.203
  WS02004402WS02004403       694.465      1278.692        19.178         1.724        10.219
  WS02004139WS02001211      1392.939      2295.056       115.800        14.181        71.511
  WS02004138WS02004139      1399.310      2305.582       116.313        14.243        71.827
  WS02003067WS02003066       691.448      1273.411        19.071         1.713        10.158
  WS02001213WS02003059      1426.195      2347.551       119.204        14.609        73.648
  WS02001212WS02001213      1435.352      2362.587       119.970        14.703        74.122
  WS02001211WS02001212      1437.203      2365.602       120.132        14.723        74.222
  WS02003072WS02003073      2218.207      3781.128       148.164        17.563        89.998
  WS02003069WS02003072      2223.154      3789.177       148.592        17.615        90.263
  WS02003060WS02003069      2225.677      3793.415       148.770        17.637        90.372
  WS02003059WS02003060      1423.203      2342.557       118.978        14.582        73.510
  HS02004901HS02004770        10.270        19.478         0.195         0.015         0.091
  HS02004876HS02004881        37.319        72.582         0.843         0.062         0.416
  HS02004870HS02004876        28.161        54.630         0.678         0.051         0.338
  HS02004842HS02004848         5.467        10.277         0.115         0.008         0.053
  HS02004837HS02004842        10.073        17.584         0.584         0.067         0.347
  HS02004830HS02004837        65.640       112.706         4.557         0.546         2.785
  HS02004824HS02004830        66.390       113.909         4.628         0.555         2.829
  HS02004817HS02004824        88.207       156.979         5.083         0.584         3.051
  HS02004770HS02004777        39.297        75.469         0.819         0.055         0.377
  HS02004799HS02004480       131.418       245.388         3.680         0.335         1.933
  HS02004792HS02004799       119.093       220.677         3.497         0.327         1.853
  HS02004788HS02004792        68.401       126.867         2.388         0.235         1.309
  HS02004785HS02004788        40.736        77.767         0.969         0.074         0.471
  HS02004777HS02004785        40.063        76.673         0.909         0.067         0.434
  HS02004480HS02004478       165.969       312.628         4.244         0.375         2.196
  HS02004479HS02004480        38.155        72.991         0.885         0.079         0.463
  HS02004862HS02004870        21.016        40.118         0.536         0.043         0.270
  HS02004848HS02004852         8.058        15.280         0.167         0.011         0.077
  HS02004856HS02004862        14.072        27.341         0.284         0.019         0.133
  HS02004852HS02004856         8.065        15.291         0.167         0.011         0.077
  HS02004802HS02004478       102.888       186.894         5.162         0.575         3.055
  HS02004478WS02006287       268.273       498.579         9.364         0.945         5.225
  HS02004817HS02004807        86.887       154.862         4.956         0.568         2.972
  HS02004807HS02004802       103.115       187.248         5.194         0.580         3.075
  YS02001759YS02001757       305.786       556.094         6.128         0.425         2.996
  YS02001762YS02001759       152.928       278.911         3.245         0.230         1.607
  YS02001765YS02001762       154.018       281.692         3.291         0.234         1.634
  YS02001770YS02001767       155.080       285.579         3.150         0.210         1.534
  YS02001774YS02001770       208.545       397.497         4.079         0.269         1.973
  YS02001779YS02001774       208.016       396.447         4.171         0.283         2.037
  YS02001649YS02001757       348.062       622.283         7.049         0.485         3.394
  YS02001767YS02001765       155.448       285.011         3.343         0.238         1.662
  YS02006561YS02001783       937.946      1719.940        19.924         1.499         9.952
  YS02001783YS02001784       937.822      1719.749        19.920         1.498         9.950
  YS02001784YS02001785       945.157      1731.510        20.633         1.588        10.396
  YS02001788YS02001790       945.744      1732.467        20.705         1.597        10.442
  YS02001790YS02001791       946.882      1734.336        20.808         1.610        10.506
  YS02001791YS02001793       946.874      1734.331        20.805         1.609        10.504
  YS02001910YS02001907       330.731       600.114         8.324         0.654         4.312
  YS02001786YS02001788       945.368      1731.870        20.661         1.591        10.414
  YS02001915YS02001910       330.819       600.251         8.280         0.648         4.282
  YS02001918YS02001915       162.001       281.663         4.783         0.448         2.611
  YS02001923YS02001920       139.657       244.882         2.797         0.203         1.376
  YS02001926YS02001923       138.320       242.637         2.711         0.192         1.324
  YS02001929YS02001926       136.394       239.389         2.579         0.177         1.244
  YS02001920YS02001918       160.252       278.052         4.723         0.442         2.578
  YS02001629YS02163301       103.412       183.232         2.169         0.140         1.011
  YS02001619YS02001622       146.402       262.946         3.031         0.197         1.414
  YS02001622YS02001625       145.257       261.140         3.003         0.195         1.401
  YS02001625YS02001629       104.509       185.047         2.193         0.141         1.022
  YS02163301YS02001633       103.147       182.787         2.162         0.140         1.009
  YS02163601YS02164001       361.976       646.092         7.114         0.502         3.403
  YS02164001YS02001641       361.484       645.265         7.095         0.500         3.392
  YS02001641YS02001644       361.744       645.637         7.094         0.500         3.391
  YS02001647YS02001649       404.592       730.495         8.104         0.560         3.882
  YS02006553YS02006556       659.390      1203.440        14.325         1.105         7.233
  YS02006556YS02006558       659.346      1203.352        14.293         1.101         7.212
  YSB6556YSB1171              21.960        42.210         0.452         0.038         0.230
  YS02001907YS02006553       659.476      1203.621        14.338         1.107         7.242
  YS02006558YS02006561       937.959      1719.952        19.924         1.499         9.952
  YS02001633YS02163601       362.660       647.147         7.094         0.498         3.386
  YS02001644YS02001647       410.861       741.589         8.198         0.567         3.924
  YS02001745YS02001748       210.315       386.862         4.751         0.333         2.375
  YS02001748YS02001751       208.408       383.234         4.799         0.343         2.414
  YS02001751YS02001754       207.470       381.693         4.785         0.343         2.409
  YS02001754YS02001757       208.236       382.848         4.949         0.365         2.515
  YS02001882YS02001884         2.455         4.218         0.050         0.004         0.025
  YS02001884YS02001887         6.883        12.201         0.134         0.010         0.067
  YS02001890YS02001895       389.443       720.619         7.189         0.539         3.508
  YS02001895YS02001898       389.263       720.371         7.182         0.539         3.504
  YS02001898YS02001901       389.046       720.000         7.177         0.538         3.502
  YS02001901YS02001904       388.866       719.733         7.184         0.540         3.507
  YS02001904YS02001907       389.096       720.086         7.237         0.547         3.541
  YS02001887YS02001890       390.261       721.844         7.243         0.546         3.541
  YS02001652YS02001649       155.709       284.559         3.179         0.228         1.490
  YS02001655YS02001652       156.224       285.403         3.192         0.229         1.497
  YS02001658YS02001655       155.548       284.324         3.102         0.218         1.438
  YS02001661YS02001658       159.658       291.717         3.184         0.223         1.476
  YS02001664YS02001661       175.974       318.945         3.546         0.248         1.642
  YSB1154YSB6556              21.538        41.537         0.403         0.032         0.199
  YSB1174YSB1171              14.658        28.296         0.298         0.024         0.150
  YSB1171HS02004479           38.113        72.923         0.888         0.080         0.465
  HS02004881HS02006253        42.244        82.445         0.932         0.068         0.459
  YS02001793JiankangQianchi       946.676      1734.022        20.800         1.609        10.501
  YS02001757CaochengTiaoxuchi       534.677       963.190        11.323         0.817         5.577
  WSF200WS02003060           691.501      1273.474        19.085         1.715        10.168
  1                         2224.368      3790.526       148.887        17.655        90.456
  CC-Pump-1                  122.550       222.336         2.576         0.188         1.270
  CC-Pump-2                   72.219       131.121         1.519         0.111         0.749
  JK-Pump-1                  227.442       417.414         5.059         0.396         2.565
  JK-Pump-2                  449.981       833.563         9.575         0.729         4.798
  XR-Pump-1                  394.205       647.456        33.305         4.088        20.596
  XR-Pump-2                  336.293       554.769        27.776         3.398        17.143
  XR-Pump-3                  336.293       554.769        27.776         3.398        17.143
  XR-Pump-4                  336.293       554.769        27.776         3.398        17.143
  

  Analysis begun on:  Thu Jul 15 21:24:11 2021
  Analysis ended on:  Thu Jul 15 21:24:14 2021
  Total elapsed time: 00:00:03