
  EPA STORM WATER MANAGEMENT MODEL - VERSION 5.1 (Build 5.3.0.dev0)
  --------------------------------------------------------------

  WARNING 04: minimum elevation drop used for Conduit WS02004404WS02004405
  WARNING 03: negative offset ignored for Link YS02001904YS02001907
  
  *********************************************************
  NOTE: The summary statistics displayed in this report are
  based on results found at every computational time step,  
  not just on results from each reporting time step.
  *********************************************************
  
  ****************
  Analysis Options
  ****************
  Flow Units ............... LPS
  Process Models:
    Rainfall/Runoff ........ YES
    RDII ................... NO
    Snowmelt ............... NO
    Groundwater ............ NO
    Flow Routing ........... YES
    Ponding Allowed ........ NO
    Water Quality .......... YES
  Infiltration Method ...... HORTON
  Flow Routing Method ...... DYNWAVE
  Surcharge Method ......... EXTRAN
  Starting Date ............ 08/28/2015 08:00:00
  Ending Date .............. 08/28/2015 15:50:00
  Antecedent Dry Days ...... 8.0
  Report Time Step ......... 00:01:00
  Wet Time Step ............ 00:01:00
  Dry Time Step ............ 00:01:00
  Routing Time Step ........ 5.00 sec
  Variable Time Step ....... YES
  Maximum Trials ........... 8
  Number of Threads ........ 4
  Head Tolerance ........... 0.001500 m
  
  
  **************************        Volume         Depth
  Runoff Quantity Continuity     hectare-m            mm
  **************************     ---------       -------
  Total Precipitation ......         5.556        12.164
  Evaporation Loss .........         0.000         0.000
  Infiltration Loss ........         1.002         2.194
  Surface Runoff ...........         3.688         8.075
  Final Storage ............         0.866         1.897
  Continuity Error (%) .....        -0.019
  
  
  **************************           COD            SS            TN            TP         NH4-N
  Runoff Quality Continuity             kg            kg            kg            kg            kg
  **************************    ----------    ----------    ----------    ----------    ----------
  Initial Buildup ..........     41378.656     70582.865      1804.177       168.684      1032.807
  Surface Buildup ..........        19.275        34.271         2.335         0.213         1.362
  Wet Deposition ...........         0.000         0.000         0.000         0.000         0.000
  Sweeping Removal .........         0.000         0.000         0.000         0.000         0.000
  Infiltration Loss ........        84.023       157.502         1.599         0.111         0.761
  BMP Removal ..............         0.000         0.000         0.000         0.000         0.000
  Surface Runoff ...........      3122.074      5752.154        60.620         4.098        28.771
  Remaining Buildup ........     38190.779     64705.500      1744.271       164.686      1004.628
  Continuity Error (%) .....         0.003         0.003         0.001         0.001         0.001
  
  
  **************************        Volume        Volume
  Flow Routing Continuity        hectare-m      10^6 ltr
  **************************     ---------     ---------
  Dry Weather Inflow .......         0.616         6.165
  Wet Weather Inflow .......         3.687        36.871
  Groundwater Inflow .......         0.000         0.000
  RDII Inflow ..............         0.000         0.000
  External Inflow ..........         0.102         1.024
  External Outflow .........         1.828        18.279
  Flooding Loss ............         2.137        21.365
  Evaporation Loss .........         0.000         0.000
  Exfiltration Loss ........         0.000         0.000
  Initial Stored Volume ....         0.076         0.761
  Final Stored Volume ......         0.631         6.307
  Continuity Error (%) .....        -2.525
  
  
  **************************           COD            SS            TN            TP         NH4-N
  Quality Routing Continuity            kg            kg            kg            kg            kg
  **************************    ----------    ----------    ----------    ----------    ----------
  Dry Weather Inflow .......      1541.201      2465.922       147.955        18.494        92.472
  Wet Weather Inflow .......      3121.311      5750.846        60.604         4.097        28.763
  Groundwater Inflow .......         0.000         0.000         0.000         0.000         0.000
  RDII Inflow ..............         0.000         0.000         0.000         0.000         0.000
  External Inflow ..........       183.418       293.469        17.608         2.201        11.005
  External Outflow .........      2203.156      3750.293       149.515        17.774        90.946
  Flooding Loss ............      1961.296      3587.415        49.726         4.256        25.987
  Exfiltration Loss ........         0.000         0.000         0.000         0.000         0.000
  Mass Reacted .............         0.000         0.000         0.000         0.000         0.000
  Initial Stored Mass ......         0.000         0.000         0.000         0.000         0.000
  Final Stored Mass ........       550.276       948.331        23.675         2.506        13.653
  Continuity Error (%) .....         2.707         2.634         1.438         1.034         1.251
  
  
  *************************
  Highest Continuity Errors
  *************************
  Node HS02004842 (14.53%)
  Node YS02001884 (11.41%)
  Node JK-storage (-11.28%)
  Node YSB1171 (2.74%)
  Node HS02004817 (2.73%)
  
  
  ***************************
  Time-Step Critical Elements
  ***************************
  Link WS02006252WS02006251 (54.66%)
  Link WS02006280WS02006229 (11.99%)
  Link YS02001793JiankangQianchi (9.10%)
  Link WS02006238WS02006235 (9.01%)
  Link YS02006556YS02006558 (5.07%)
  
  
  ********************************
  Highest Flow Instability Indexes
  ********************************
  Link WS02006113WS02006111 (56)
  Link YS02163601YS02164001 (42)
  Link YS02163301YS02001633 (41)
  Link YS02001629YS02163301 (39)
  Link YS02001619YS02001622 (39)
  
  
  *************************
  Routing Time Step Summary
  *************************
  Minimum Time Step           :     0.50 sec
  Average Time Step           :     1.39 sec
  Maximum Time Step           :     5.00 sec
  Percent in Steady State     :    -0.00
  Average Iterations per Step :     4.58
  Percent Not Converging      :    20.10
  
  
  ***************************
  Subcatchment Runoff Summary
  ***************************
  
  ------------------------------------------------------------------------------------------------------------------------------
                            Total      Total      Total      Total     Imperv       Perv      Total       Total     Peak  Runoff
                           Precip      Runon       Evap      Infil     Runoff     Runoff     Runoff      Runoff   Runoff   Coeff
  Subcatchment                 mm         mm         mm         mm         mm         mm         mm    10^6 ltr      LPS
  ------------------------------------------------------------------------------------------------------------------------------
  sub0                      12.16       0.00       0.00       0.65      11.27       0.20      11.47        0.01     1.99   0.943
  sub1                      12.16       0.00       0.00       1.12      10.73       0.22      10.95        0.07    14.96   0.900
  sub2                      12.16       0.00       0.00       4.23       7.58       0.27       7.85        0.07    15.08   0.646
  sub3                      12.16       0.00       0.00       4.29       7.54       0.21       7.75        0.17    34.61   0.637
  sub4                      12.16       0.00       0.00       1.19      10.57       0.14      10.71        0.22    42.34   0.881
  sub5                      12.16       0.00       0.00       0.69      11.21       0.16      11.38        0.13    26.18   0.935
  sub7                      12.16       0.00       0.00       0.88      11.01       0.22      11.22        0.04     7.95   0.923
  sub8                      12.16       0.00       0.00       0.89      11.00       0.21      11.20        0.07    14.89   0.921
  sub9                      12.16       0.00       0.00       0.89      10.99       0.21      11.20        0.05    11.18   0.921
  sub10                     12.16       0.00       0.00       0.79      11.10       0.18      11.28        0.12    25.49   0.928
  sub11                     12.16       0.00       0.00       0.78      11.12       0.19      11.31        0.13    27.35   0.930
  sub12                     12.16       0.00       0.00       1.27      10.53       0.31      10.85        0.09    20.52   0.892
  sub14                     12.16       0.00       0.00       0.89      10.99       0.20      11.20        0.11    22.08   0.920
  sub15                     12.16       0.00       0.00       3.28       8.45       0.37       8.82        0.15    32.49   0.725
  sub16                     12.16       0.00       0.00       3.51       8.11       0.50       8.61        0.09    20.36   0.708
  sub17                     12.16       0.00       0.00       3.41       8.23       0.48       8.71        0.07    16.72   0.716
  sub22                     12.16       0.00       0.00       4.80       6.89       0.43       7.32        0.46   102.62   0.602
  sub23                     12.16       0.00       0.00       4.05       7.62       0.45       8.07        0.38    85.35   0.663
  sub60                     12.16       0.00       0.00       1.42       8.82       0.04       8.86        2.69   336.84   0.729
  sub61                     12.16       0.00       0.00       2.01       8.94       0.06       9.00        2.78   399.45   0.740
  sub62                     12.16       0.00       0.00       0.92       9.73       0.05       9.78        3.01   415.79   0.804
  sub63                     12.16       0.00       0.00       3.46       7.82       0.06       7.88        2.39   361.21   0.648
  sub64                     12.16       0.00       0.00       1.78       8.47       0.04       8.51        2.59   320.97   0.699
  sub65                     12.16       0.00       0.00       1.54       8.61       0.04       8.65        2.66   326.54   0.711
  sub66                     12.16       0.00       0.00       3.49       7.26       0.04       7.30        2.24   290.53   0.600
  sub67                     12.16       0.00       0.00       0.91      10.24       0.07      10.31        3.18   494.23   0.848
  sub68                     12.16       0.00       0.00       1.64       9.40       0.06       9.46        2.91   432.52   0.778
  sub69                     12.16       0.00       0.00       1.73       9.72       0.09       9.82        2.29   383.95   0.807
  sub70                     12.16      10.02       0.00       6.98      13.09       0.56      13.65        3.12   394.93   0.615
  sub71                     12.16       0.00       0.00       0.93       9.48       0.05       9.53        2.25   296.34   0.783
  sub72                     12.16       0.00       0.00       0.83       7.62       0.02       7.64        1.56   151.13   0.628
  1                         12.16      13.29       0.00       1.37      14.64       3.94      18.57        4.36   399.24   0.730
  2                         12.16       0.00       0.00       3.02       2.89       1.65       4.55        1.82   245.52   0.374
  
  
  ****************************
  Subcatchment Washoff Summary
  ****************************
  
  ------------------------------------------------------------------------------------------
                                 COD            SS            TN            TP         NH4-N
  Subcatchment                    kg            kg            kg            kg            kg
  ------------------------------------------------------------------------------------------
  sub0                         2.176         4.147         0.037         0.003         0.018
  sub1                         9.268        18.138         0.173         0.012         0.083
  sub2                         5.563        10.570         0.119         0.008         0.054
  sub3                        13.747        25.918         0.288         0.019         0.132
  sub4                        21.530        42.606         0.429         0.026         0.205
  sub5                        21.300        41.103         0.378         0.029         0.183
  sub7                         4.748         9.424         0.090         0.006         0.043
  sub8                         7.142        14.500         0.143         0.008         0.069
  sub9                         6.100        12.212         0.118         0.007         0.057
  sub10                       17.532        34.266         0.321         0.023         0.155
  sub11                       17.086        33.770         0.320         0.022         0.154
  sub12                       14.392        27.890         0.260         0.019         0.125
  sub14                       13.021        25.823         0.247         0.016         0.119
  sub15                       16.182        30.744         0.313         0.023         0.146
  sub16                       10.318        19.555         0.197         0.015         0.092
  sub17                        9.471        17.789         0.175         0.014         0.082
  sub22                       48.821        90.813         0.932         0.070         0.434
  sub23                       29.138        56.181         0.627         0.041         0.287
  sub60                      203.703       376.194         4.083         0.248         1.956
  sub61                      251.300       461.579         4.699         0.320         2.261
  sub62                      262.762       491.326         5.157         0.324         2.474
  sub63                      185.047       334.594         3.739         0.261         1.731
  sub64                      253.867       452.095         4.687         0.339         2.235
  sub65                      260.106       465.192         4.834         0.344         2.309
  sub66                      146.558       263.078         3.037         0.197         1.417
  sub67                      388.205       718.566         6.963         0.510         3.363
  sub68                      276.714       513.393         5.318         0.356         2.539
  sub69                      247.676       464.012         4.658         0.325         2.225
  sub70                      413.256       778.342         8.287         0.572         3.877
  sub71                      173.740       327.842         3.597         0.206         1.720
  sub72                      136.329       239.316         2.558         0.174         1.230
  1                          280.724       531.718         5.751         0.398         2.660
  2                           35.485        61.812         1.030         0.062         0.437
  ------------------------------------------------------------------------------------------
  System                    3783.006      6994.507        73.566         4.996        34.873
  
  
  ******************
  Node Depth Summary
  ******************
  
  ---------------------------------------------------------------------------------
                                 Average  Maximum  Maximum  Time of Max    Reported
                                   Depth    Depth      HGL   Occurrence   Max Depth
  Node                 Type       Meters   Meters   Meters  days hr:min      Meters
  ---------------------------------------------------------------------------------
  WS02001211           JUNCTION     0.77     0.83     5.67     0  03:09        0.83
  WS02001212           JUNCTION     0.48     0.55     5.62     0  03:08        0.55
  WS02001213           JUNCTION     0.71     0.82     5.59     0  03:07        0.82
  WS02003069           JUNCTION     0.50     0.68     5.26     0  03:07        0.68
  WS02003072           JUNCTION     0.56     0.73     5.10     0  03:07        0.73
  WS02003073           JUNCTION     0.34     0.45     4.52     0  03:08        0.45
  WS02003060           JUNCTION     0.44     0.60     5.53     0  03:06        0.60
  WS02003066           JUNCTION     0.24     0.36     5.92     0  03:05        0.36
  WS02003059           JUNCTION     0.76     0.88     5.57     0  03:07        0.88
  WS02003067           JUNCTION     0.58     0.79     6.11     0  03:05        0.79
  WS02004401           JUNCTION     0.69     1.14     7.14     0  03:02        1.13
  WS02004402           JUNCTION     0.72     1.14     7.10     0  03:03        1.13
  WS02004403           JUNCTION     0.74     1.13     7.06     0  03:03        1.12
  WS02004404           JUNCTION     0.81     1.18     7.03     0  03:03        1.17
  WS02004406           JUNCTION     0.82     1.12     6.95     0  03:03        1.12
  WS02004409           JUNCTION     0.50     0.87     6.64     0  03:04        0.87
  WS02004410           JUNCTION     0.52     0.87     6.59     0  03:04        0.87
  WS02004411           JUNCTION     0.54     0.86     6.54     0  03:04        0.86
  WS02004412           JUNCTION     0.55     0.84     6.48     0  03:05        0.84
  WS02004413           JUNCTION     0.71     0.98     6.45     0  03:05        0.98
  WS02004405           JUNCTION     0.81     1.16     7.01     0  03:02        1.15
  WS02006109           JUNCTION     0.77     1.31     7.93     0  03:03        1.30
  WS02006110           JUNCTION     0.76     1.15     7.73     0  03:02        1.14
  WS02006111           JUNCTION     0.23     0.66     7.36     0  03:03        0.65
  WS02006112           JUNCTION     0.86     1.42     7.30     0  03:03        1.41
  WS02006113           JUNCTION     0.35     0.65     7.54     0  03:03        0.65
  WS02006115           JUNCTION     0.58     1.09     7.23     0  03:03        1.09
  WS02006116           JUNCTION     0.67     1.15     7.19     0  03:02        1.14
  WS02006230           JUNCTION     0.75     1.52     8.27     0  03:02        1.51
  WS02006231           JUNCTION     0.50     1.22     8.34     0  03:02        1.21
  WS02006232           JUNCTION     0.63     1.36     8.40     0  03:03        1.36
  WS02006234           JUNCTION     0.55     1.32     8.48     0  03:02        1.31
  WS02006235           JUNCTION     0.58     1.37     8.54     0  03:02        1.36
  WS02006238           JUNCTION     0.61     1.39     8.54     0  03:02        1.38
  WS02006240           JUNCTION     0.49     1.28     8.57     0  03:01        1.27
  WS02006242           JUNCTION     0.54     1.33     8.60     0  03:02        1.33
  WS02006243           JUNCTION     0.41     1.21     8.63     0  03:03        1.20
  WS02006245           JUNCTION     0.38     1.17     8.65     0  03:02        1.16
  WS02006247           JUNCTION     0.39     1.17     8.67     0  03:00        1.16
  WS02006248           JUNCTION     0.33     1.09     8.68     0  02:59        1.09
  WS02006249           JUNCTION     0.35     1.09     8.69     0  02:59        1.09
  WS02006239           JUNCTION     0.56     1.35     8.56     0  03:02        1.34
  WS02006251           JUNCTION     0.32     1.29     8.96     0  02:59        1.08
  WS02006252           JUNCTION     0.22     0.73     8.97     0  02:59        0.58
  WS02006253           JUNCTION     0.35     1.35     8.99     0  02:59        1.12
  WS02006256           JUNCTION     1.62     2.35     9.28     0  00:18        2.35
  WS02004138           JUNCTION     0.19     0.20     7.45     0  00:00        0.19
  WS02004139           JUNCTION     0.71     0.77     5.68     0  03:09        0.77
  WS02004407           JUNCTION     0.23     0.37     6.68     0  03:03        0.37
  WS02006228           JUNCTION     0.78     1.44     8.09     0  03:02        1.43
  WS02006229           JUNCTION     0.76     1.49     8.18     0  03:02        1.48
  WS02006280           JUNCTION     0.07     0.20     8.47     0  03:02        0.20
  WS02006284           JUNCTION     0.38     0.56     8.96     0  03:02        0.56
  WS02006287           JUNCTION     0.11     0.30     9.25     0  03:01        0.30
  WSF200               JUNCTION     0.22     0.40     5.64     0  03:05        0.40
  HS02004901           JUNCTION     0.13     0.29    10.12     0  03:01        0.29
  HS02004881           JUNCTION     0.01     0.04     9.07     0  03:01        0.04
  HS02004876           JUNCTION     0.05     0.12     9.15     0  03:01        0.12
  HS02004870           JUNCTION     0.02     0.07     9.35     0  03:01        0.07
  HS02004862           JUNCTION     0.02     0.08     9.46     0  03:01        0.08
  HS02004856           JUNCTION     0.08     0.13     9.55     0  03:01        0.13
  HS02004852           JUNCTION     0.01     0.05     9.56     0  03:01        0.05
  HS02004848           JUNCTION     0.01     0.05     9.65     0  03:01        0.05
  HS02004842           JUNCTION     0.34     0.38     9.65     0  03:01        0.38
  HS02004837           JUNCTION     0.03     0.07     9.65     0  03:01        0.07
  HS02004830           JUNCTION     0.04     0.08     9.55     0  03:01        0.08
  HS02004824           JUNCTION     0.03     0.06     9.47     0  03:01        0.06
  HS02004817           JUNCTION     0.45     0.61     9.45     0  03:01        0.61
  HS02004807           JUNCTION     0.13     0.28     9.45     0  03:01        0.28
  HS02004802           JUNCTION     0.17     0.31     9.44     0  03:01        0.31
  HS02004799           JUNCTION     0.13     0.35     9.56     0  03:01        0.35
  HS02004792           JUNCTION     0.04     0.15     9.67     0  03:01        0.15
  HS02004788           JUNCTION     0.03     0.11    10.01     0  03:01        0.11
  HS02004785           JUNCTION     0.05     0.18    10.09     0  03:01        0.18
  HS02004777           JUNCTION     0.15     0.31    10.11     0  03:01        0.31
  HS02004770           JUNCTION     0.12     0.29    10.12     0  03:01        0.29
  HS02004480           JUNCTION     0.09     0.28     9.52     0  03:01        0.28
  HS02004479           JUNCTION     0.13     0.32     9.52     0  03:01        0.32
  HS02004478           JUNCTION     0.07     0.20     9.42     0  03:01        0.20
  YS02001745           JUNCTION     0.72     0.92     8.44     0  03:00        0.92
  YS02001748           JUNCTION     1.12     1.40     8.48     0  02:28        1.36
  YS02001751           JUNCTION     1.30     1.94     8.82     0  02:18        1.56
  YS02001754           JUNCTION     1.55     1.83     8.44     0  02:59        1.83
  YS02001762           JUNCTION     1.75     2.04     8.44     0  02:57        2.04
  YS02001765           JUNCTION     1.70     1.99     8.44     0  02:57        1.98
  YS02001767           JUNCTION     1.66     1.94     8.43     0  02:57        1.93
  YS02001770           JUNCTION     1.66     1.93     8.42     0  02:59        1.92
  YS02001774           JUNCTION     1.72     1.98     8.41     0  02:59        1.98
  YS02001779           JUNCTION     1.47     1.68     8.37     0  02:18        1.68
  YS02001882           JUNCTION     0.57     1.62     8.34     0  03:00        1.61
  YS02001884           JUNCTION     0.66     1.72     8.34     0  03:00        1.71
  YS02001759           JUNCTION     1.78     2.08     8.44     0  02:57        2.07
  YS02001887           JUNCTION     0.74     1.80     8.33     0  03:00        1.79
  YS02001890           JUNCTION     0.77     1.81     8.32     0  02:58        1.81
  YS02001898           JUNCTION     0.54     1.56     8.29     0  02:59        1.55
  YS02001901           JUNCTION     0.65     1.67     8.28     0  03:00        1.67
  YS02001904           JUNCTION     0.63     1.64     8.27     0  03:01        1.63
  YS02001907           JUNCTION     0.96     1.96     8.25     0  02:45        1.96
  YS02001910           JUNCTION     0.75     1.77     8.28     0  02:45        1.76
  YS02001915           JUNCTION     0.55     1.59     8.30     0  02:46        1.57
  YS02001918           JUNCTION     0.30     1.25     8.32     0  02:46        1.24
  YS02001619           JUNCTION     1.26     1.61     8.54     0  02:27        1.50
  YS02001629           JUNCTION     1.61     1.85     8.40     0  02:28        1.84
  YS02001641           JUNCTION     1.71     1.93     8.37     0  03:07        1.93
  YS02001644           JUNCTION     1.71     1.92     8.35     0  02:35        1.92
  YS02001652           JUNCTION     1.56     2.09     8.69     0  02:20        1.88
  YS02001655           JUNCTION     1.32     2.20     9.05     0  02:20        1.69
  YS02001920           JUNCTION     0.40     1.33     8.33     0  02:46        1.31
  YS02001923           JUNCTION     0.23     1.08     8.34     0  02:46        1.07
  YS02001926           JUNCTION     0.29     0.91     8.35     0  02:46        0.89
  YS02001929           JUNCTION     0.17     0.68     8.38     0  02:45        0.68
  YS02001658           JUNCTION     1.06     2.00     9.14     0  02:52        1.49
  YS02001661           JUNCTION     0.83     1.96     9.37     0  02:52        1.36
  YS02001664           JUNCTION     0.37     0.57     8.50     0  04:09        0.56
  YS02001622           JUNCTION     1.28     1.62     8.52     0  02:28        1.51
  YS02001633           JUNCTION     1.70     1.94     8.40     0  03:00        1.94
  YS02001649           JUNCTION     1.75     2.05     8.44     0  02:41        2.05
  YS02001757           JUNCTION     1.88     2.18     8.44     0  02:56        2.17
  YS02001895           JUNCTION     0.53     1.57     8.31     0  03:00        1.55
  YS02001625           JUNCTION     1.56     1.78     8.38     0  02:27        1.78
  YS02163301           JUNCTION     1.64     1.88     8.40     0  03:00        1.87
  YS02163601           JUNCTION     1.75     1.99     8.38     0  03:03        1.98
  YS02164001           JUNCTION     1.69     1.92     8.38     0  02:56        1.92
  YS02001647           JUNCTION     1.54     1.80     8.41     0  04:03        1.79
  YSB1154              JUNCTION     0.27     0.47     9.52     0  03:01        0.47
  YSB6556              JUNCTION     0.16     0.35     9.52     0  03:01        0.35
  YSB1174              JUNCTION     0.22     0.41     9.52     0  03:01        0.41
  YSB1171              JUNCTION     0.42     0.62     9.52     0  03:01        0.62
  YS02006553           JUNCTION     0.96     1.97     8.25     0  02:59        1.96
  YS02006561           JUNCTION     0.32     1.08     7.74     0  02:48        1.07
  YS02006556           JUNCTION     0.93     1.92     8.23     0  02:53        1.92
  YS02006558           JUNCTION     0.97     1.96     8.23     0  02:59        1.95
  YS02001783           JUNCTION     0.54     1.47     7.61     0  02:49        1.46
  YS02001784           JUNCTION     0.56     1.57     7.64     0  02:34        1.40
  YS02001786           JUNCTION     0.50     1.76     7.79     0  02:34        1.25
  YS02001788           JUNCTION     0.42     1.51     7.49     0  02:34        1.12
  YS02001790           JUNCTION     0.54     1.85     7.50     0  06:10        1.28
  YS02001791           JUNCTION     0.50     1.70     7.17     0  06:07        1.44
  YS02001793           JUNCTION     0.69     1.92     6.75     0  06:10        1.80
  WSC                  OUTFALL      0.34     0.45     1.12     0  03:08        0.45
  JK-storage           STORAGE      2.97     5.80     6.60     0  02:01        5.80
  CC-storage           STORAGE      1.14     1.42     8.42     0  03:11        1.42
  XR-storage           STORAGE      6.38     7.72     5.72     0  02:59        7.72
  
  
  *******************
  Node Inflow Summary
  *******************
  
  -------------------------------------------------------------------------------------------------
                                  Maximum  Maximum                  Lateral       Total        Flow
                                  Lateral    Total  Time of Max      Inflow      Inflow     Balance
                                   Inflow   Inflow   Occurrence      Volume      Volume       Error
  Node                 Type           LPS      LPS  days hr:min    10^6 ltr    10^6 ltr     Percent
  -------------------------------------------------------------------------------------------------
  WS02001211           JUNCTION      7.35   391.09     0  03:14       0.207        10.2       0.393
  WS02001212           JUNCTION      0.00   394.43     0  03:14           0        10.2       0.240
  WS02001213           JUNCTION      0.00   397.42     0  03:14           0        10.1       0.274
  WS02003069           JUNCTION      0.32  1216.01     0  03:07     0.00902        18.3       0.180
  WS02003072           JUNCTION      0.00  1215.93     0  03:07           0        18.3       0.219
  WS02003073           JUNCTION      1.82  1217.90     0  03:08      0.0514        18.3       0.253
  WS02003060           JUNCTION     16.53  1215.51     0  03:06       0.466        18.4       0.170
  WS02003066           JUNCTION      0.00   827.96     0  03:05           0        7.85       0.051
  WS02003059           JUNCTION      0.00   401.40     0  03:14           0        10.1       0.395
  WS02003067           JUNCTION      0.00   827.64     0  03:05           0        7.85       0.109
  WS02004401           JUNCTION      0.00   832.10     0  03:03           0        8.06       0.218
  WS02004402           JUNCTION      0.00   832.96     0  03:03           0        8.04       0.210
  WS02004403           JUNCTION      0.00   833.13     0  03:03           0        8.02       0.197
  WS02004404           JUNCTION      0.16   833.19     0  03:03     0.00457        8.01       0.152
  WS02004406           JUNCTION      0.00   832.38     0  03:03           0        7.98       0.373
  WS02004409           JUNCTION      0.00   831.36     0  03:03           0        7.95       0.166
  WS02004410           JUNCTION      0.00   829.03     0  03:04           0        7.93       0.197
  WS02004411           JUNCTION      0.00   827.96     0  03:04           0        7.92       0.207
  WS02004412           JUNCTION      0.00   827.57     0  03:04           0         7.9       0.230
  WS02004413           JUNCTION      0.00   827.57     0  03:05           0        7.88       0.351
  WS02004405           JUNCTION      0.04   833.16     0  03:03     0.00107           8       0.227
  WS02006109           JUNCTION      1.23   819.07     0  03:02      0.0347        8.07       0.152
  WS02006110           JUNCTION      0.00   818.96     0  03:02           0        8.06       0.181
  WS02006111           JUNCTION      0.00   817.83     0  03:03           0        8.04       0.030
  WS02006112           JUNCTION     16.72   831.23     0  03:03      0.0747        8.11       0.315
  WS02006113           JUNCTION      0.00   818.82     0  03:02           0        8.04       0.066
  WS02006115           JUNCTION      0.00   831.19     0  03:03           0        8.08       0.191
  WS02006116           JUNCTION      0.00   831.77     0  03:03           0        8.07       0.162
  WS02006230           JUNCTION     10.28   508.68     0  04:03        0.29        5.89       0.166
  WS02006231           JUNCTION      0.00   498.10     0  04:02           0         5.6       0.008
  WS02006232           JUNCTION      0.00   498.13     0  04:02           0        5.61       0.163
  WS02006234           JUNCTION      0.00   498.12     0  04:03           0        5.61      -0.003
  WS02006235           JUNCTION      0.00   498.25     0  04:02           0        5.72       0.122
  WS02006238           JUNCTION      0.00   353.25     0  05:52           0        2.27       0.084
  WS02006240           JUNCTION      0.00   359.09     0  05:51           0        2.18       0.100
  WS02006242           JUNCTION      0.00   363.56     0  05:51           0        2.14       0.116
  WS02006243           JUNCTION      0.00   368.75     0  05:51           0        2.11      -0.080
  WS02006245           JUNCTION      0.00   373.04     0  05:51           0         2.1       0.164
  WS02006247           JUNCTION      0.00   377.22     0  05:50           0         2.1       0.023
  WS02006248           JUNCTION      0.00   381.63     0  05:50           0        2.09      -0.022
  WS02006249           JUNCTION      0.00   386.13     0  05:50           0         2.1       0.061
  WS02006239           JUNCTION      0.00   354.69     0  05:52           0        2.23      -0.009
  WS02006251           JUNCTION      0.08   399.81     0  04:00     0.00217        2.13      -0.010
  WS02006252           JUNCTION      0.00   399.95     0  07:30           0        1.68       0.010
  WS02006253           JUNCTION      1.99   135.77     0  04:00     0.00928       0.445      -0.046
  WS02006256           JUNCTION      0.00   983.00     0  02:10           0        9.51       0.017
  WS02004138           JUNCTION      0.00   380.00     0  00:00           0          10       0.067
  WS02004139           JUNCTION      0.32   394.45     0  00:00     0.00905          10       0.452
  WS02004407           JUNCTION      0.00   831.95     0  03:03           0        7.95       0.069
  WS02006228           JUNCTION      0.00   817.84     0  03:02           0        8.04       0.105
  WS02006229           JUNCTION      0.00   818.73     0  03:02           0        8.05       0.133
  WS02006280           JUNCTION      0.00   413.65     0  03:02           0        2.17       0.005
  WS02006284           JUNCTION      0.10   413.60     0  03:02      0.0027        2.17       0.040
  WS02006287           JUNCTION      0.00   413.25     0  03:01           0        2.17       0.033
  WSF200               JUNCTION      0.00   828.07     0  03:05           0        7.84       0.046
  HS02004901           JUNCTION     20.36    20.36     0  03:01      0.0901      0.0904       1.990
  HS02004881           JUNCTION      7.95    84.19     0  03:01      0.0378        0.41       0.092
  HS02004876           JUNCTION     14.96    76.76     0  03:01      0.0728       0.373       0.148
  HS02004870           JUNCTION     14.89    62.15     0  03:01      0.0716         0.3       0.037
  HS02004862           JUNCTION     15.28    47.68     0  03:01      0.0788       0.229       0.077
  HS02004856           JUNCTION     11.18    32.72     0  03:01      0.0539       0.152       0.960
  HS02004852           JUNCTION      0.00    21.94     0  03:01           0      0.0979       0.059
  HS02004848           JUNCTION     34.61    34.61     0  03:01       0.174       0.174       0.028
  HS02004842           JUNCTION      0.00    12.41     0  03:01           0      0.0895      17.000
  HS02004837           JUNCTION     31.84    43.94     0  03:01       0.303        0.38       0.214
  HS02004830           JUNCTION      0.15    43.86     0  03:01     0.00423        0.37       0.334
  HS02004824           JUNCTION     42.39    85.90     0  03:01       0.225       0.594       0.091
  HS02004817           JUNCTION      0.60    86.29     0  03:01      0.0169        0.61       2.809
  HS02004807           JUNCTION     27.35   112.31     0  03:01       0.131       0.725       0.605
  HS02004802           JUNCTION      0.00   111.38     0  03:01           0       0.723       0.547
  HS02004799           JUNCTION     22.08   258.94     0  03:01       0.107        1.24       0.223
  HS02004792           JUNCTION    102.90   237.98     0  03:01        0.47        1.14       0.036
  HS02004788           JUNCTION     34.16   135.95     0  03:01       0.199       0.669       0.058
  HS02004785           JUNCTION      0.15   103.52     0  03:01     0.00423       0.471       0.106
  HS02004777           JUNCTION      0.03   104.16     0  03:01    0.000846       0.472       1.115
  HS02004770           JUNCTION     85.35   105.10     0  03:01       0.385       0.473       0.659
  HS02004480           JUNCTION      0.00   302.47     0  03:01           0        1.46       0.076
  HS02004479           JUNCTION      0.00    44.91     0  03:02           0       0.232       0.317
  HS02004478           JUNCTION      0.00   413.12     0  03:01           0        2.17       0.014
  YS02001745           JUNCTION    336.84   377.54     0  02:26        2.69         2.7       0.424
  YS02001748           JUNCTION      0.04   550.42     0  02:27     0.00127        2.69       0.817
  YS02001751           JUNCTION      0.01   342.52     0  03:01     0.00031        2.65       0.922
  YS02001754           JUNCTION      0.26   342.78     0  03:01     0.00733        2.64       0.952
  YS02001762           JUNCTION      0.00   291.56     0  02:38           0        1.82       1.187
  YS02001765           JUNCTION      0.00   290.49     0  02:38           0        1.82       1.357
  YS02001767           JUNCTION      0.54   290.25     0  02:38      0.0151        1.84       1.965
  YS02001770           JUNCTION    415.94   566.60     0  03:01        3.01        3.54       0.905
  YS02001774           JUNCTION      0.00   568.15     0  03:01           0         2.2       1.146
  YS02001779           JUNCTION      0.01   567.84     0  03:01    0.000141        2.17       0.707
  YS02001882           JUNCTION      0.00    34.26     0  02:35           0       0.017      16.084
  YS02001884           JUNCTION      0.00    67.44     0  02:35           0      0.0545      12.874
  YS02001759           JUNCTION    399.49   572.09     0  02:38        2.78        4.04       0.573
  YS02001887           JUNCTION    494.68   495.44     0  03:01        3.19        3.23       0.267
  YS02001890           JUNCTION      0.00   495.09     0  03:01           0        3.18       0.296
  YS02001898           JUNCTION      0.00   495.54     0  03:01           0        3.16       0.102
  YS02001901           JUNCTION      0.00   495.93     0  03:01           0        3.16       0.224
  YS02001904           JUNCTION      0.00   495.74     0  03:00           0        3.16       0.207
  YS02001907           JUNCTION      0.00   943.28     0  03:01           0        7.02       0.347
  YS02001910           JUNCTION      0.00   449.58     0  03:00           0        3.87       0.308
  YS02001915           JUNCTION    296.36   449.11     0  03:00        2.25         3.9       0.161
  YS02001918           JUNCTION      0.00   210.34     0  03:30           0        1.65       0.116
  YS02001619           JUNCTION    290.53   290.53     0  03:01        2.24        2.24       0.547
  YS02001629           JUNCTION      0.00   216.63     0  02:17           0        1.69       1.734
  YS02001641           JUNCTION      0.00   397.68     0  02:35           0        4.25       0.497
  YS02001644           JUNCTION    321.01  1356.83     0  03:00        2.59          11       0.239
  YS02001652           JUNCTION      0.00   381.43     0  03:01           0        2.34       1.022
  YS02001655           JUNCTION      0.15   386.98     0  02:17     0.00434        2.36       1.003
  YS02001920           JUNCTION      2.87   203.92     0  02:46      0.0809        1.64       0.183
  YS02001923           JUNCTION      0.04   224.48     0  02:46     0.00106        1.56       0.052
  YS02001926           JUNCTION      0.05   172.31     0  02:46     0.00147        1.56       0.210
  YS02001929           JUNCTION    151.13   151.13     0  03:01        1.56        1.56       0.037
  YS02001658           JUNCTION      0.00   599.10     0  02:23           0         2.4       0.896
  YS02001661           JUNCTION      0.00   604.27     0  02:45           0        2.68      -0.129
  YS02001664           JUNCTION    361.21   361.21     0  03:01        2.38        2.67       0.239
  YS02001622           JUNCTION      0.00   291.33     0  03:01           0        2.22       1.452
  YS02001633           JUNCTION    326.74   398.05     0  02:35        2.66        4.31       0.750
  YS02001649           JUNCTION      0.00   820.87     0  02:35           0        6.47       0.578
  YS02001757           JUNCTION      0.00  1577.13     0  02:35           0        8.46       1.106
  YS02001895           JUNCTION      0.00   495.89     0  03:01           0        3.17       0.166
  YS02001625           JUNCTION      0.00   290.68     0  03:01           0        2.19       1.812
  YS02163301           JUNCTION      0.00   201.43     0  02:24           0        1.67       1.464
  YS02163601           JUNCTION      0.11   398.15     0  02:35      0.0031        4.27       0.709
  YS02164001           JUNCTION      0.00   397.91     0  02:35           0        4.25       0.478
  YS02001647           JUNCTION      0.00   670.59     0  03:12           0        5.71       0.495
  YSB1154              JUNCTION     26.18    26.18     0  03:01       0.129        0.13       1.130
  YSB6556              JUNCTION      0.00    25.83     0  03:01           0        0.13       0.969
  YSB1174              JUNCTION     20.52    20.52     0  03:01      0.0948      0.0952       1.368
  YSB1171              JUNCTION      0.00    45.31     0  03:01           0       0.231       2.822
  YS02006553           JUNCTION      0.00   703.55     0  03:31           0        6.56       0.236
  YS02006561           JUNCTION      0.00   982.43     0  02:59           0        9.44       0.010
  YS02006556           JUNCTION      0.00   703.51     0  03:31           0        6.57       0.176
  YS02006558           JUNCTION    433.40   983.21     0  03:00        2.93        9.47       0.054
  YS02001783           JUNCTION      0.00   982.82     0  03:00           0        9.44       0.023
  YS02001784           JUNCTION      1.06   983.63     0  02:59      0.0299        9.47       0.037
  YS02001786           JUNCTION      0.06   983.75     0  02:59     0.00159        9.47       0.037
  YS02001788           JUNCTION      0.07   983.56     0  03:01       0.002        9.47       0.023
  YS02001790           JUNCTION      0.15   983.94     0  02:59     0.00437        9.47       0.007
  YS02001791           JUNCTION      0.00   983.63     0  03:00           0        9.47       0.014
  YS02001793           JUNCTION      0.00   983.99     0  03:01           0        9.47      -0.023
  WSC                  OUTFALL       0.00  1218.22     0  03:08           0        18.3       0.000
  JK-storage           STORAGE       0.00   984.36     0  03:00           0        9.62     -10.135
  CC-storage           STORAGE       0.00  1577.22     0  02:35           0        5.68       1.158
  XR-storage           STORAGE     844.76   844.76     0  03:01        11.8        12.4      -0.005
  
  
  **********************
  Node Surcharge Summary
  **********************
  
  Surcharging occurs when water rises above the top of the highest conduit.
  ---------------------------------------------------------------------
                                               Max. Height   Min. Depth
                                   Hours       Above Crown    Below Rim
  Node                 Type      Surcharged         Meters       Meters
  ---------------------------------------------------------------------
  WS02004401           JUNCTION        0.21          0.138        1.522
  WS02004402           JUNCTION        0.23          0.140        1.600
  WS02004403           JUNCTION        0.24          0.127        1.903
  WS02004404           JUNCTION        0.40          0.180        2.600
  WS02004406           JUNCTION        0.33          0.117        2.333
  WS02004405           JUNCTION        0.37          0.157        2.643
  WS02006109           JUNCTION        2.21          0.492        1.328
  WS02006110           JUNCTION        0.99          0.240        1.610
  WS02006112           JUNCTION        1.28          0.419        1.261
  WS02006115           JUNCTION        0.13          0.080        2.170
  WS02006116           JUNCTION        0.14          0.085        2.205
  WS02006230           JUNCTION        0.40          0.444        1.126
  WS02006231           JUNCTION        0.69          0.506        1.024
  WS02006232           JUNCTION        1.86          0.663        0.817
  WS02006234           JUNCTION        0.87          0.599        0.641
  WS02006235           JUNCTION        1.27          0.662        0.628
  WS02006238           JUNCTION        1.37          0.672        0.758
  WS02006240           JUNCTION        0.74          0.569        0.821
  WS02006242           JUNCTION        0.76          0.604        0.216
  WS02006243           JUNCTION        0.43          0.497        0.273
  WS02006245           JUNCTION        0.32          0.460        0.390
  WS02006247           JUNCTION        0.31          0.458        0.302
  WS02006248           JUNCTION        0.26          0.374        0.006
  WS02006249           JUNCTION        0.27          0.390        0.000
  WS02006239           JUNCTION        0.81          0.610        0.680
  WS02006251           JUNCTION        0.07          0.262        0.918
  WS02006252           JUNCTION        0.61          0.325        0.775
  WS02006253           JUNCTION        0.08          0.306        2.174
  WS02006256           JUNCTION        6.96          2.050        0.000
  WS02006228           JUNCTION        2.17          0.611        1.589
  YS02001748           JUNCTION        5.31          0.324        0.866
  YS02001751           JUNCTION        5.48          0.943        0.257
  YS02001754           JUNCTION        5.69          0.783        0.367
  YS02001762           JUNCTION        5.87          1.038        0.112
  YS02001765           JUNCTION        5.84          0.986        0.114
  YS02001767           JUNCTION        5.81          0.942        0.088
  YS02001770           JUNCTION        5.80          0.897        0.023
  YS02001774           JUNCTION        5.86          0.983        0.067
  YS02001779           JUNCTION        5.67          0.680        0.000
  YS02001882           JUNCTION        0.90          0.620        0.210
  YS02001884           JUNCTION        0.93          0.659        0.211
  YS02001759           JUNCTION        5.89          1.075        0.135
  YS02001887           JUNCTION        1.00          0.745        0.205
  YS02001890           JUNCTION        1.02          0.760        0.000
  YS02001898           JUNCTION        0.87          0.528        0.212
  YS02001901           JUNCTION        0.97          0.675        0.195
  YS02001904           JUNCTION        0.94          0.639        0.211
  YS02001907           JUNCTION        1.74          0.950        0.000
  YS02001910           JUNCTION        1.07          0.774        0.326
  YS02001915           JUNCTION        0.89          0.586        0.414
  YS02001918           JUNCTION        0.71          0.252        0.558
  YS02001619           JUNCTION        5.47          0.610        0.000
  YS02001629           JUNCTION        5.48          0.470        0.000
  YS02001641           JUNCTION        5.85          0.934        0.166
  YS02001644           JUNCTION        5.85          0.920        0.000
  YS02001652           JUNCTION        5.73          1.064        0.066
  YS02001655           JUNCTION        5.50          1.200        0.000
  YS02001920           JUNCTION        0.74          0.326        0.814
  YS02001658           JUNCTION        5.34          0.996        0.304
  YS02001661           JUNCTION        0.16          0.893        0.497
  YS02001622           JUNCTION        5.50          0.620        0.000
  YS02001633           JUNCTION        5.83          0.925        0.135
  YS02001649           JUNCTION        5.87          1.050        0.000
  YS02001757           JUNCTION        5.98          1.177        0.033
  YS02001895           JUNCTION        0.88          0.566        0.184
  YS02001625           JUNCTION        5.76          0.780        0.000
  YS02163301           JUNCTION        5.81          0.880        0.150
  YS02163601           JUNCTION        5.87          0.986        0.094
  YS02164001           JUNCTION        5.84          0.917        0.183
  YS02001647           JUNCTION        5.75          0.800        0.100
  YS02006553           JUNCTION        1.83          0.966        0.224
  YS02006561           JUNCTION        0.77          0.277        0.873
  YS02006556           JUNCTION        1.30          0.880        0.470
  YS02006558           JUNCTION        1.26          0.861        0.539
  YS02001783           JUNCTION        1.06          0.669        0.931
  YS02001784           JUNCTION        1.03          0.770        0.720
  YS02001786           JUNCTION        0.98          0.956        0.474
  YS02001788           JUNCTION        0.93          0.711        0.769
  YS02001790           JUNCTION        1.89          1.052        0.105
  YS02001791           JUNCTION        2.01          0.905        1.015
  YS02001793           JUNCTION        2.32          0.921        1.679
  
  
  *********************
  Node Flooding Summary
  *********************
  
  Flooding refers to all water that overflows a node, whether it ponds or not.
  --------------------------------------------------------------------------
                                                             Total   Maximum
                                 Maximum   Time of Max       Flood    Ponded
                        Hours       Rate    Occurrence      Volume     Depth
  Node                 Flooded       LPS   days hr:min    10^6 ltr    Meters
  --------------------------------------------------------------------------
  WS02006249              0.06     83.60      0  02:59       0.008     0.000
  WS02006256              3.47    810.39      0  03:02       5.971     0.000
  YS02001779              3.09    567.52      0  03:01       2.147     0.000
  YS02001890              0.01      1.89      0  02:59       0.000     0.000
  YS02001907              0.58    394.13      0  03:01       0.443     0.000
  YS02001619              0.01     20.03      0  02:27       0.000     0.000
  YS02001629              0.01     35.46      0  02:28       0.000     0.000
  YS02001644              4.93   1356.27      0  03:00       9.482     0.000
  YS02001655              0.01    205.36      0  02:20       0.000     0.000
  YS02001622              0.01     10.70      0  02:28       0.000     0.000
  YS02001649              0.03     30.32      0  03:50       0.001     0.000
  YS02001625              1.18    237.10      0  03:01       0.465     0.000
  JK-storage              0.89    819.21      0  02:40       1.086     0.000
  XR-storage              2.98    464.74      0  03:01       1.762     0.000
  
  
  **********************
  Storage Volume Summary
  **********************
  
  --------------------------------------------------------------------------------------------------
                         Average     Avg  Evap Exfil       Maximum     Max    Time of Max    Maximum
                          Volume    Pcnt  Pcnt  Pcnt        Volume    Pcnt     Occurrence    Outflow
  Storage Unit           1000 m3    Full  Loss  Loss       1000 m3    Full    days hr:min        LPS
  --------------------------------------------------------------------------------------------------
  JK-storage               0.149      51     0     0         0.291     100       0  02:01     983.00
  CC-storage               3.176      20     0     0         3.959      25       0  03:11     399.95
  XR-storage               0.765      83     0     0         0.926     100       0  02:59     380.00
  
  
  ***********************
  Outfall Loading Summary
  ***********************
  
  ---------------------------------------------------------------------------------------------------------------------------------
                         Flow       Avg       Max       Total         Total         Total         Total         Total         Total
                         Freq      Flow      Flow      Volume           COD            SS            TN            TP         NH4-N
  Outfall Node           Pcnt       LPS       LPS    10^6 ltr            kg            kg            kg            kg            kg
  ---------------------------------------------------------------------------------------------------------------------------------
  WSC                  100.00    732.35   1218.22      18.279      2203.322      3750.557       149.532        17.776        90.957
  ---------------------------------------------------------------------------------------------------------------------------------
  System               100.00    732.35   1218.22      18.279      2203.322      3750.557       149.532        17.776        90.957
  
  
  ********************
  Link Flow Summary
  ********************
  
  -----------------------------------------------------------------------------
                                 Maximum  Time of Max   Maximum    Max/    Max/
                                  |Flow|   Occurrence   |Veloc|    Full    Full
  Link                 Type          LPS  days hr:min     m/sec    Flow   Depth
  -----------------------------------------------------------------------------
  WS02003066WSF200     CONDUIT    828.07     0  03:05      2.94    0.14    0.30
  WS02006287WS02006284 CONDUIT    413.50     0  03:02      2.04    0.19    0.30
  WS02006284WS02006280 CONDUIT    413.65     0  03:02      2.28    0.17    0.28
  WS02006280WS02006229 CONDUIT    413.65     0  03:02      3.63    0.09    0.25
  WS02006229WS02006228 CONDUIT    817.84     0  03:02      1.63    2.71    1.00
  WS02006256WS02006235 CONDUIT    263.52     0  04:52      3.73    2.79    1.00
  WS02006253WS02006251 CONDUIT    130.38     0  04:00      0.60    0.39    1.00
  WS02006252WS02006251 CONDUIT    399.73     0  04:00      3.18    1.47    1.00
  WS02006251WS02006249 CONDUIT    386.13     0  05:50      1.10    1.11    1.00
  WS02006249WS02006248 CONDUIT    381.63     0  05:50      1.14    2.09    1.00
  WS02006248WS02006247 CONDUIT    377.22     0  05:50      1.11    0.82    1.00
  WS02006247WS02006245 CONDUIT    373.04     0  05:51      1.08    2.96    1.00
  WS02006245WS02006243 CONDUIT    368.75     0  05:51      1.09    1.09    1.00
  WS02006243WS02006242 CONDUIT    363.56     0  05:51      1.00    0.78    1.00
  WS02006242WS02006240 CONDUIT    359.09     0  05:51      0.97    1.43    1.00
  WS02006240WS02006239 CONDUIT    354.69     0  05:52      1.00    1.12    1.00
  WS02006239WS02006238 CONDUIT    353.25     0  05:52      0.95    1.13    1.00
  WS02006238WS02006235 CONDUIT    352.86     0  05:52      0.95    0.79    1.00
  WS02006235WS02006234 CONDUIT    498.12     0  04:03      1.29    5.26    1.00
  WS02006234WS02006232 CONDUIT    498.13     0  04:02      1.29    1.01    1.00
  WS02006232WS02006231 CONDUIT    498.10     0  04:02      1.29    1.04    1.00
  WS02006231WS02006230 CONDUIT    498.41     0  04:03      1.34    7.56    1.00
  WS02006230WS02006229 CONDUIT    512.14     0  04:03      1.33   11.40    1.00
  WS02006228WS02006109 CONDUIT    817.84     0  03:02      1.63    3.57    1.00
  WS02006116WS02004401 CONDUIT    832.10     0  03:03      1.06    1.15    1.00
  WS02006115WS02006116 CONDUIT    831.77     0  03:03      1.06    1.07    1.00
  WS02006113WS02006111 CONDUIT    817.83     0  03:03      2.58    0.98    0.81
  WS02006112WS02006115 CONDUIT    831.19     0  03:03      1.06    0.49    1.00
  WS02006111WS02006112 CONDUIT    819.10     0  03:03      1.73    0.39    0.90
  WS02006110WS02006113 CONDUIT    818.82     0  03:02      1.74    0.74    0.91
  WS02006109WS02006110 CONDUIT    818.96     0  03:02      1.63    1.57    1.00
  WS02004411WS02004412 CONDUIT    827.57     0  03:04      1.16    1.18    0.85
  WS02004401WS02004402 CONDUIT    832.96     0  03:03      1.06    1.00    1.00
  WS02004413WS02003067 CONDUIT    827.64     0  03:05      1.42    0.35    0.70
  WS02004412WS02004413 CONDUIT    827.57     0  03:05      1.10    0.55    0.91
  WS02004410WS02004411 CONDUIT    827.96     0  03:04      1.15    1.13    0.86
  WS02004409WS02004410 CONDUIT    829.03     0  03:04      1.15    1.07    0.87
  WS02004407WS02004409 CONDUIT    831.36     0  03:03      1.64    0.29    0.62
  WS02004406WS02004407 CONDUIT    831.95     0  03:03      1.45    0.37    0.69
  WS02004405WS02004406 CONDUIT    832.38     0  03:03      1.06    1.64    1.00
  WS02004404WS02004405 CONDUIT    833.12     0  03:03      1.13    8.16    1.00
  WS02004403WS02004404 CONDUIT    833.03     0  03:03      1.06    0.60    1.00
  WS02004402WS02004403 CONDUIT    833.13     0  03:03      1.06    1.20    1.00
  WS02004139WS02001211 CONDUIT    383.75     0  03:14      0.90    0.49    0.63
  WS02004138WS02004139 CONDUIT    394.13     0  00:00      3.62    0.08    0.46
  WS02003067WS02003066 CONDUIT    827.96     0  03:05      1.54    0.27    0.48
  WS02001213WS02003059 CONDUIT    401.40     0  03:14      0.89    0.66    0.84
  WS02001212WS02001213 CONDUIT    397.42     0  03:14      1.32    0.61    0.53
  WS02001211WS02001212 CONDUIT    394.43     0  03:14      0.78    0.30    0.69
  WS02003072WS02003073 CONDUIT   1216.08     0  03:08      1.90    2.63    0.55
  WS02003069WS02003072 CONDUIT   1215.93     0  03:07      1.76    0.59    0.59
  WS02003060WS02003069 CONDUIT   1215.69     0  03:07      1.98    0.48    0.53
  WS02003059WS02003060 CONDUIT    406.73     0  03:13      0.95    0.27    0.74
  HS02004901HS02004770 CONDUIT     20.53     0  03:01      0.07    0.08    0.42
  HS02004876HS02004881 CONDUIT     76.55     0  03:01      0.95    0.81    0.12
  HS02004870HS02004876 CONDUIT     61.91     0  03:01      0.65    0.04    0.14
  HS02004842HS02004848 CONDUIT     12.41     0  03:01      0.06    0.01    0.31
  HS02004837HS02004842 CONDUIT     12.98     0  03:02      0.42    0.01    0.32
  HS02004830HS02004837 CONDUIT     43.71     0  03:01      0.57    0.04    0.11
  HS02004824HS02004830 CONDUIT     43.67     0  03:01      0.59    0.06    0.11
  HS02004817HS02004824 CONDUIT     85.69     0  03:01      0.26    0.04    0.48
  HS02004770HS02004777 CONDUIT    104.13     0  03:01      0.35    0.19    0.43
  HS02004799HS02004480 CONDUIT    258.32     0  03:01      0.83    0.33    0.44
  HS02004792HS02004799 CONDUIT    237.07     0  03:01      0.95    0.15    0.36
  HS02004788HS02004792 CONDUIT    135.44     0  03:01      1.06    0.09    0.18
  HS02004785HS02004788 CONDUIT    103.22     0  03:02      0.71    0.78    0.21
  HS02004777HS02004785 CONDUIT    103.37     0  03:01      0.42    0.13    0.35
  HS02004480HS02004478 CONDUIT    302.31     0  03:01      1.26    1.27    0.34
  HS02004479HS02004480 CONDUIT     46.29     0  03:02      0.32    0.04    0.43
  HS02004862HS02004870 CONDUIT     47.43     0  03:01      0.66    0.05    0.10
  HS02004848HS02004852 CONDUIT     21.94     0  03:01      0.45    0.02    0.07
  HS02004856HS02004862 CONDUIT     32.48     0  03:01      0.48    0.03    0.10
  HS02004852HS02004856 CONDUIT     21.86     0  03:02      0.25    0.02    0.13
  HS02004802HS02004478 CONDUIT    111.53     0  03:02      0.45    0.10    0.36
  HS02004478WS02006287 CONDUIT    413.25     0  03:01      1.75    0.12    0.26
  HS02004817HS02004807 CONDUIT     86.14     0  03:01      0.19    0.05    0.63
  HS02004807HS02004802 CONDUIT    111.38     0  03:01      0.38    0.21    0.42
  YS02001759YS02001757 CONDUIT    571.78     0  02:38      0.73    0.41    1.00
  YS02001762YS02001759 CONDUIT    291.26     0  02:38      0.37    0.34    1.00
  YS02001765YS02001762 CONDUIT    291.56     0  02:38      0.37    0.27    1.00
  YS02001770YS02001767 CONDUIT    289.72     0  02:38      0.37    1.15    1.00
  YS02001774YS02001770 CONDUIT    568.15     0  03:01      0.72    0.36    1.00
  YS02001779YS02001774 CONDUIT    567.83     0  03:01      0.72    0.29    1.00
  YS02001649YS02001757 CONDUIT    820.93     0  02:35      1.05    0.50    1.00
  YS02001767YS02001765 CONDUIT    290.49     0  02:38      0.37    0.37    1.00
  YS02006561YS02001783 CONDUIT    982.82     0  03:00      2.15    0.51    1.00
  YS02001783YS02001784 CONDUIT    982.57     0  02:59      1.95    1.35    1.00
  YS02001784YS02001785 CONDUIT    983.70     0  02:59      1.96    2.29    1.00
  YS02001788YS02001790 CONDUIT    983.78     0  02:59      2.44    0.73    1.00
  YS02001790YS02001791 CONDUIT    983.63     0  03:00      2.91    1.07    1.00
  YS02001791YS02001793 CONDUIT    983.99     0  03:01      5.76    0.42    1.00
  YS02001910YS02001907 CONDUIT    449.15     0  03:00      0.57    0.25    1.00
  YS02001786YS02001788 CONDUIT    983.49     0  03:01      2.31    1.89    1.00
  YS02001915YS02001910 CONDUIT    449.58     0  03:00      0.59    0.22    1.00
  YS02001918YS02001915 CONDUIT    246.80     0  03:31      0.44    0.14    1.00
  YS02001923YS02001920 CONDUIT    201.05     0  02:46      0.72    0.09    1.00
  YS02001926YS02001923 CONDUIT    224.44     0  02:46      0.83    0.32    0.88
  YS02001929YS02001926 CONDUIT    172.26     0  02:46      0.89    0.08    0.78
  YS02001920YS02001918 CONDUIT    210.34     0  03:30      0.69    0.20    1.00
  YS02001629YS02163301 CONDUIT    201.43     0  02:24      0.26    0.25    1.00
  YS02001619YS02001622 CONDUIT    291.33     0  03:01      0.61    0.43    1.00
  YS02001622YS02001625 CONDUIT    290.68     0  03:01      0.37    0.16    1.00
  YS02001625YS02001629 CONDUIT    216.63     0  02:17      0.28    0.10    1.00
  YS02163301YS02001633 CONDUIT    203.69     0  02:27      0.26    0.19    1.00
  YS02163601YS02164001 CONDUIT    397.91     0  02:35      0.51    0.35    1.00
  YS02164001YS02001641 CONDUIT    397.68     0  02:35      0.51    0.54    1.00
  YS02001641YS02001644 CONDUIT    400.74     0  02:27      0.51    1.30    1.00
  YS02001647YS02001649 CONDUIT    670.59     0  03:12      0.85    0.35    1.00
  YS02006553YS02006556 CONDUIT    703.51     0  03:31      0.90    0.60    1.00
  YS02006556YS02006558 CONDUIT    704.25     0  03:31      0.90    0.56    1.00
  YSB6556YSB1171       CONDUIT     25.76     0  03:03      0.09    0.03    0.70
  YS02001907YS02006553 CONDUIT    703.55     0  03:31      0.78    0.83    1.00
  YS02006558YS02006561 CONDUIT    982.43     0  02:59      3.47    2.17    1.00
  YS02001633YS02163601 CONDUIT    398.04     0  02:35      0.51    0.42    1.00
  YS02001644YS02001647 CONDUIT    670.60     0  03:12      0.85    0.39    1.00
  YS02001745YS02001748 CONDUIT    550.38     0  02:27      1.47    0.21    0.96
  YS02001748YS02001751 CONDUIT    342.51     0  03:01      1.06    0.17    1.00
  YS02001751YS02001754 CONDUIT    342.52     0  03:01      0.92    0.17    1.00
  YS02001754YS02001757 CONDUIT    342.53     0  03:01      0.44    0.14    1.00
  YS02001882YS02001884 CONDUIT     34.26     0  02:35      0.13    0.04    1.00
  YS02001884YS02001887 CONDUIT     67.44     0  02:35      0.09    0.09    1.00
  YS02001890YS02001895 CONDUIT    495.89     0  03:01      0.63    0.23    1.00
  YS02001895YS02001898 CONDUIT    495.54     0  03:01      0.63    0.86    1.00
  YS02001898YS02001901 CONDUIT    495.93     0  03:01      0.63    0.32    1.00
  YS02001901YS02001904 CONDUIT    495.74     0  03:00      0.63    0.77    1.00
  YS02001904YS02001907 CONDUIT    495.68     0  03:01      0.63    0.17    1.00
  YS02001887YS02001890 CONDUIT    495.09     0  03:01      0.63    0.85    1.00
  YS02001652YS02001649 CONDUIT    382.26     0  03:01      0.63    0.19    1.00
  YS02001655YS02001652 CONDUIT    381.43     0  03:01      0.98    0.19    1.00
  YS02001658YS02001655 CONDUIT    386.83     0  02:17      1.22    0.16    1.00
  YS02001661YS02001658 CONDUIT    599.10     0  02:23      1.55    0.24    1.00
  YS02001664YS02001661 CONDUIT    604.27     0  02:45      1.43    0.19    0.76
  YSB1154YSB6556       CONDUIT     25.83     0  03:01      0.17    0.05    0.59
  YSB1174YSB1171       CONDUIT     20.15     0  03:01      0.07    0.03    0.70
  YSB1171HS02004479    CONDUIT     44.91     0  03:02      0.54    0.03    0.55
  HS02004881HS02006253 CONDUIT     84.17     0  03:01      2.15    0.02    0.53
  YS02001793JiankangQianchi CONDUIT    984.36     0  03:00     16.50    0.08    1.00
  YS02001757CaochengTiaoxuchi CONDUIT   1577.22     0  02:35      2.02    0.69    1.00
  WSF200WS02003060     CONDUIT    828.40     0  03:05      1.85    0.18    0.42
  1                    CONDUIT   1218.22     0  03:08      3.51    0.42    0.45
  CC-Pump-1            PUMP       200.00     0  05:40              1.00
  CC-Pump-2            PUMP       199.97     0  07:30              1.00
  JK-Pump-1            PUMP       300.00     0  02:10              1.00
  JK-Pump-2            PUMP       683.00     0  02:10              1.00
  XR-Pump-1            PUMP        95.00     0  00:00              1.00
  XR-Pump-2            PUMP        95.00     0  00:00              1.00
  XR-Pump-3            PUMP        95.00     0  00:00              1.00
  XR-Pump-4            PUMP        95.00     0  00:00              1.00
  
  
  ***************************
  Flow Classification Summary
  ***************************
  
  -------------------------------------------------------------------------------------
                      Adjusted    ---------- Fraction of Time in Flow Class ---------- 
                       /Actual         Up    Down  Sub   Sup   Up    Down  Norm  Inlet 
  Conduit               Length    Dry  Dry   Dry   Crit  Crit  Crit  Crit  Ltd   Ctrl  
  -------------------------------------------------------------------------------------
  WS02003066WSF200        1.00   0.01  0.03  0.00  0.00  0.97  0.00  0.00  0.73  0.00
  WS02006287WS02006284    1.00   0.04  0.02  0.00  0.54  0.41  0.00  0.00  0.62  0.00
  WS02006284WS02006280    1.00   0.05  0.00  0.00  0.00  0.00  0.00  0.95  0.00  0.00
  WS02006280WS02006229    1.00   0.05  0.00  0.00  0.00  0.02  0.00  0.93  0.02  0.00
  WS02006229WS02006228    1.00   0.00  0.00  0.00  1.00  0.00  0.00  0.00  0.00  0.00
  WS02006256WS02006235    1.00   0.01  0.00  0.00  0.99  0.00  0.00  0.00  0.00  0.00
  WS02006253WS02006251    1.00   0.02  0.02  0.00  0.95  0.00  0.01  0.00  0.00  0.00
  WS02006252WS02006251    1.00   0.21  0.00  0.00  0.02  0.00  0.76  0.00  0.00  0.00
  WS02006251WS02006249    1.00   0.00  0.00  0.00  1.00  0.00  0.00  0.00  0.42  0.00
  WS02006249WS02006248    1.00   0.00  0.01  0.00  0.86  0.00  0.13  0.00  0.00  0.00
  WS02006248WS02006247    1.00   0.01  0.00  0.00  0.98  0.00  0.00  0.01  0.23  0.00
  WS02006247WS02006245    1.00   0.01  0.00  0.00  0.99  0.00  0.00  0.01  0.00  0.00
  WS02006245WS02006243    1.00   0.01  0.00  0.00  0.94  0.00  0.00  0.05  0.01  0.00
  WS02006243WS02006242    1.00   0.01  0.00  0.00  0.99  0.00  0.00  0.00  0.26  0.00
  WS02006242WS02006240    1.00   0.01  0.00  0.00  0.99  0.00  0.00  0.00  0.00  0.00
  WS02006240WS02006239    1.00   0.01  0.00  0.00  0.94  0.00  0.00  0.05  0.01  0.00
  WS02006239WS02006238    1.00   0.01  0.00  0.00  0.99  0.00  0.00  0.00  0.09  0.00
  WS02006238WS02006235    1.00   0.01  0.00  0.00  0.99  0.00  0.00  0.00  0.00  0.00
  WS02006235WS02006234    1.00   0.01  0.00  0.00  0.96  0.00  0.04  0.00  0.00  0.00
  WS02006234WS02006232    1.00   0.01  0.00  0.00  0.99  0.00  0.00  0.00  0.05  0.00
  WS02006232WS02006231    1.00   0.01  0.00  0.00  0.99  0.00  0.00  0.00  0.00  0.00
  WS02006231WS02006230    1.00   0.01  0.00  0.00  0.55  0.00  0.44  0.00  0.00  0.00
  WS02006230WS02006229    1.00   0.00  0.00  0.00  0.99  0.00  0.00  0.01  0.00  0.00
  WS02006228WS02006109    1.00   0.00  0.00  0.00  1.00  0.00  0.00  0.00  0.00  0.00
  WS02006116WS02004401    1.00   0.02  0.00  0.00  0.98  0.00  0.00  0.00  0.00  0.00
  WS02006115WS02006116    1.00   0.02  0.00  0.00  0.98  0.00  0.00  0.00  0.00  0.00
  WS02006113WS02006111    1.00   0.01  0.00  0.00  0.02  0.96  0.00  0.00  0.24  0.00
  WS02006112WS02006115    1.00   0.01  0.00  0.00  0.98  0.00  0.00  0.00  0.00  0.00
  WS02006111WS02006112    1.00   0.01  0.00  0.00  0.98  0.00  0.00  0.00  0.91  0.00
  WS02006110WS02006113    1.00   0.00  0.01  0.00  0.99  0.00  0.00  0.00  0.00  0.00
  WS02006109WS02006110    1.00   0.00  0.00  0.00  0.99  0.00  0.00  0.00  0.00  0.00
  WS02004411WS02004412    1.00   0.03  0.00  0.00  0.97  0.00  0.00  0.00  0.00  0.00
  WS02004401WS02004402    1.00   0.02  0.00  0.00  0.98  0.00  0.00  0.00  0.00  0.00
  WS02004413WS02003067    1.00   0.03  0.00  0.00  0.00  0.00  0.97  0.00  0.00  0.00
  WS02004412WS02004413    1.00   0.03  0.00  0.00  0.97  0.00  0.00  0.00  0.00  0.00
  WS02004410WS02004411    1.00   0.03  0.00  0.00  0.97  0.00  0.00  0.00  0.00  0.00
  WS02004409WS02004410    1.00   0.03  0.00  0.00  0.97  0.00  0.00  0.00  0.00  0.00
  WS02004407WS02004409    1.00   0.03  0.00  0.00  0.97  0.00  0.00  0.00  0.93  0.00
  WS02004406WS02004407    1.00   0.00  0.02  0.00  0.97  0.00  0.00  0.00  0.00  0.00
  WS02004405WS02004406    1.00   0.00  0.00  0.00  1.00  0.00  0.00  0.00  0.03  0.00
  WS02004404WS02004405    1.00   0.00  0.00  0.00  1.00  0.00  0.00  0.00  0.00  0.00
  WS02004403WS02004404    1.00   0.00  0.02  0.00  0.98  0.00  0.00  0.00  0.00  0.00
  WS02004402WS02004403    1.00   0.02  0.00  0.00  0.98  0.00  0.00  0.00  0.00  0.00
  WS02004139WS02001211    1.00   0.00  0.00  0.00  1.00  0.00  0.00  0.00  0.00  0.00
  WS02004138WS02004139    1.00   0.00  0.00  0.00  1.00  0.00  0.00  0.00  1.00  0.00
  WS02003067WS02003066    1.00   0.03  0.00  0.00  0.97  0.00  0.00  0.00  0.00  0.00
  WS02001213WS02003059    1.00   0.00  0.00  0.00  1.00  0.00  0.00  0.00  0.00  0.00
  WS02001212WS02001213    1.00   0.00  0.00  0.00  0.91  0.00  0.09  0.00  0.00  0.00
  WS02001211WS02001212    1.00   0.00  0.00  0.00  1.00  0.00  0.00  0.00  0.00  0.00
  WS02003072WS02003073    1.00   0.00  0.00  0.00  0.00  0.00  0.00  1.00  0.00  0.00
  WS02003069WS02003072    1.00   0.00  0.00  0.00  1.00  0.00  0.00  0.00  0.10  0.00
  WS02003060WS02003069    1.00   0.00  0.00  0.00  0.99  0.01  0.00  0.00  0.07  0.00
  WS02003059WS02003060    1.00   0.00  0.00  0.00  1.00  0.00  0.00  0.00  0.00  0.00
  HS02004901HS02004770    1.00   0.04  0.00  0.00  0.96  0.00  0.00  0.00  0.00  0.00
  HS02004876HS02004881    1.00   0.01  0.00  0.00  0.91  0.08  0.00  0.00  0.00  0.00
  HS02004870HS02004876    1.00   0.00  0.00  0.00  1.00  0.00  0.00  0.00  0.95  0.00
  HS02004842HS02004848    1.00   0.00  0.04  0.00  0.96  0.00  0.00  0.00  0.55  0.00
  HS02004837HS02004842    1.00   0.00  0.00  0.00  1.00  0.00  0.00  0.00  0.11  0.00
  HS02004830HS02004837    1.00   0.00  0.00  0.00  1.00  0.00  0.00  0.00  0.99  0.00
  HS02004824HS02004830    1.00   0.00  0.00  0.00  1.00  0.00  0.00  0.00  0.00  0.00
  HS02004817HS02004824    1.00   0.00  0.00  0.00  1.00  0.00  0.00  0.00  1.00  0.00
  HS02004770HS02004777    1.00   0.00  0.04  0.00  0.96  0.00  0.00  0.00  0.02  0.00
  HS02004799HS02004480    1.00   0.00  0.01  0.00  0.95  0.00  0.04  0.00  0.00  0.00
  HS02004792HS02004799    1.00   0.00  0.00  0.00  1.00  0.00  0.00  0.00  0.98  0.00
  HS02004788HS02004792    1.00   0.00  0.00  0.00  1.00  0.00  0.00  0.00  0.98  0.00
  HS02004785HS02004788    1.00   0.00  0.00  0.00  1.00  0.00  0.00  0.00  0.00  0.00
  HS02004777HS02004785    1.00   0.00  0.00  0.00  1.00  0.00  0.00  0.00  0.12  0.00
  HS02004480HS02004478    1.00   0.04  0.00  0.00  0.64  0.00  0.00  0.31  0.00  0.00
  HS02004479HS02004480    1.00   0.01  0.00  0.00  0.99  0.00  0.00  0.00  0.11  0.00
  HS02004862HS02004870    1.00   0.00  0.00  0.00  1.00  0.00  0.00  0.00  0.03  0.00
  HS02004848HS02004852    1.00   0.04  0.00  0.00  0.96  0.00  0.00  0.00  0.62  0.00
  HS02004856HS02004862    1.00   0.00  0.05  0.00  0.95  0.00  0.00  0.00  0.83  0.00
  HS02004852HS02004856    1.00   0.04  0.00  0.00  0.95  0.00  0.00  0.00  0.85  0.00
  HS02004802HS02004478    1.00   0.04  0.00  0.00  0.95  0.00  0.00  0.00  0.02  0.00
  HS02004478WS02006287    1.00   0.05  0.00  0.00  0.72  0.23  0.00  0.00  0.64  0.00
  HS02004817HS02004807    1.00   0.00  0.04  0.00  0.96  0.00  0.00  0.00  0.01  0.00
  HS02004807HS02004802    1.00   0.04  0.00  0.00  0.95  0.00  0.00  0.00  0.00  0.00
  YS02001759YS02001757    1.00   0.00  0.00  0.00  1.00  0.00  0.00  0.00  0.16  0.00
  YS02001762YS02001759    1.00   0.00  0.00  0.00  1.00  0.00  0.00  0.00  0.03  0.00
  YS02001765YS02001762    1.00   0.00  0.00  0.00  1.00  0.00  0.00  0.00  0.13  0.00
  YS02001770YS02001767    1.00   0.00  0.00  0.00  1.00  0.00  0.00  0.00  0.00  0.00
  YS02001774YS02001770    1.00   0.00  0.04  0.00  0.95  0.00  0.00  0.00  0.02  0.00
  YS02001779YS02001774    1.00   0.00  0.00  0.00  1.00  0.00  0.00  0.00  0.18  0.00
  YS02001649YS02001757    1.00   0.00  0.00  0.00  1.00  0.00  0.00  0.00  0.16  0.00
  YS02001767YS02001765    1.00   0.00  0.00  0.00  1.00  0.00  0.00  0.00  0.00  0.00
  YS02006561YS02001783    1.00   0.06  0.00  0.00  0.37  0.58  0.00  0.00  0.49  0.00
  YS02001783YS02001784    1.00   0.00  0.06  0.00  0.94  0.00  0.00  0.00  0.01  0.00
  YS02001784YS02001785    1.00   0.00  0.00  0.00  1.00  0.00  0.00  0.00  0.17  0.00
  YS02001788YS02001790    1.00   0.00  0.00  0.00  0.41  0.59  0.00  0.00  0.39  0.00
  YS02001790YS02001791    1.00   0.00  0.00  0.00  0.36  0.64  0.00  0.00  0.46  0.00
  YS02001791YS02001793    1.00   0.00  0.00  0.00  0.41  0.59  0.00  0.00  0.03  0.00
  YS02001910YS02001907    1.00   0.00  0.00  0.00  0.99  0.00  0.00  0.01  0.12  0.00
  YS02001786YS02001788    1.00   0.00  0.00  0.00  0.39  0.61  0.00  0.00  0.00  0.00
  YS02001915YS02001910    1.00   0.00  0.00  0.00  0.99  0.01  0.00  0.00  0.15  0.00
  YS02001918YS02001915    1.00   0.00  0.00  0.00  0.99  0.00  0.00  0.00  0.54  0.00
  YS02001923YS02001920    1.00   0.00  0.00  0.00  1.00  0.00  0.00  0.00  0.84  0.00
  YS02001926YS02001923    1.00   0.00  0.03  0.00  0.16  0.00  0.82  0.00  0.00  0.00
  YS02001929YS02001926    1.00   0.00  0.04  0.00  0.96  0.00  0.00  0.00  0.77  0.00
  YS02001920YS02001918    1.00   0.00  0.00  0.00  1.00  0.00  0.00  0.00  0.00  0.00
  YS02001629YS02163301    1.00   0.05  0.00  0.00  0.95  0.00  0.00  0.00  0.00  0.00
  YS02001619YS02001622    1.00   0.04  0.00  0.00  0.96  0.00  0.00  0.00  0.00  0.00
  YS02001622YS02001625    1.00   0.04  0.00  0.00  0.96  0.00  0.00  0.00  0.04  0.00
  YS02001625YS02001629    1.00   0.04  0.02  0.00  0.92  0.00  0.02  0.00  0.00  0.00
  YS02163301YS02001633    1.00   0.00  0.05  0.00  0.95  0.00  0.00  0.00  0.00  0.00
  YS02163601YS02164001    1.00   0.00  0.03  0.00  0.97  0.00  0.00  0.00  0.00  0.00
  YS02164001YS02001641    1.00   0.00  0.03  0.00  0.97  0.00  0.00  0.00  0.06  0.00
  YS02001641YS02001644    1.00   0.00  0.00  0.00  1.00  0.00  0.00  0.00  0.00  0.00
  YS02001647YS02001649    1.00   0.00  0.06  0.00  0.94  0.00  0.00  0.00  0.01  0.00
  YS02006553YS02006556    1.00   0.00  0.00  0.00  1.00  0.00  0.00  0.00  0.03  0.00
  YS02006556YS02006558    1.00   0.00  0.00  0.00  1.00  0.00  0.00  0.00  0.00  0.00
  YSB6556YSB1171          1.00   0.01  0.03  0.00  0.96  0.00  0.00  0.00  0.00  0.00
  YS02001907YS02006553    1.00   0.00  0.01  0.00  0.99  0.00  0.00  0.00  0.00  0.00
  YS02006558YS02006561    1.00   0.06  0.00  0.00  0.16  0.78  0.00  0.00  0.51  0.00
  YS02001633YS02163601    1.00   0.00  0.00  0.00  1.00  0.00  0.00  0.00  0.15  0.00
  YS02001644YS02001647    1.00   0.00  0.06  0.00  0.94  0.00  0.00  0.00  0.00  0.00
  YS02001745YS02001748    1.00   0.00  0.00  0.00  0.90  0.01  0.00  0.10  0.04  0.00
  YS02001748YS02001751    1.00   0.00  0.00  0.00  0.97  0.03  0.00  0.00  0.15  0.00
  YS02001751YS02001754    1.00   0.00  0.00  0.00  0.93  0.00  0.00  0.07  0.02  0.00
  YS02001754YS02001757    1.00   0.00  0.00  0.00  1.00  0.00  0.00  0.00  0.18  0.00
  YS02001882YS02001884    1.00   0.05  0.00  0.00  0.95  0.00  0.00  0.00  0.00  0.00
  YS02001884YS02001887    1.00   0.02  0.02  0.00  0.96  0.00  0.00  0.00  0.00  0.00
  YS02001890YS02001895    1.00   0.00  0.05  0.00  0.95  0.00  0.00  0.00  0.00  0.00
  YS02001895YS02001898    1.00   0.05  0.00  0.00  0.94  0.00  0.01  0.00  0.00  0.00
  YS02001898YS02001901    1.00   0.05  0.00  0.00  0.95  0.00  0.00  0.00  0.01  0.00
  YS02001901YS02001904    1.00   0.05  0.00  0.00  0.95  0.00  0.00  0.00  0.00  0.00
  YS02001904YS02001907    1.00   0.00  0.05  0.00  0.95  0.00  0.00  0.00  0.00  0.00
  YS02001887YS02001890    1.00   0.00  0.00  0.00  0.99  0.00  0.01  0.00  0.00  0.00
  YS02001652YS02001649    1.00   0.00  0.00  0.00  1.00  0.00  0.00  0.00  0.16  0.00
  YS02001655YS02001652    1.00   0.00  0.00  0.00  0.93  0.00  0.00  0.06  0.02  0.00
  YS02001658YS02001655    1.00   0.00  0.05  0.00  0.92  0.03  0.00  0.00  0.08  0.00
  YS02001661YS02001658    1.00   0.05  0.00  0.00  0.90  0.06  0.00  0.00  0.08  0.00
  YS02001664YS02001661    1.00   0.04  0.00  0.00  0.90  0.05  0.00  0.00  0.19  0.00
  YSB1154YSB6556          1.00   0.04  0.00  0.00  0.96  0.00  0.00  0.00  0.01  0.00
  YSB1174YSB1171          1.00   0.02  0.02  0.00  0.97  0.00  0.00  0.00  0.00  0.00
  YSB1171HS02004479       1.00   0.01  0.00  0.00  0.98  0.00  0.00  0.01  0.10  0.00
  HS02004881HS02006253    1.00   0.02  0.00  0.00  0.50  0.02  0.00  0.46  0.28  0.00
  YS02001793JiankangQianchi    1.00   0.00  0.00  0.00  0.74  0.26  0.00  0.00  0.43  0.00
  YS02001757CaochengTiaoxuchi    1.00   0.00  0.08  0.00  0.92  0.00  0.00  0.00  0.00  0.00
  WSF200WS02003060        1.00   0.00  0.01  0.00  0.99  0.00  0.00  0.00  0.61  0.00
  1                       1.00   0.00  0.00  0.00  0.00  1.00  0.00  0.00  0.42  0.00
  
  
  *************************
  Conduit Surcharge Summary
  *************************
  
  ----------------------------------------------------------------------------
                                                           Hours        Hours 
                         --------- Hours Full --------   Above Full   Capacity
  Conduit                Both Ends  Upstream  Dnstream   Normal Flow   Limited
  ----------------------------------------------------------------------------
  WS02006229WS02006228        2.17      2.24      2.17      3.09         2.17
  WS02006256WS02006235        5.53      5.53      6.96      4.23         0.01
  WS02006253WS02006251        0.24      0.24      0.25      0.01         0.02
  WS02006252WS02006251        0.25      0.25      0.61      0.42         0.01
  WS02006251WS02006249        0.25      0.25      0.27      0.13         0.01
  WS02006249WS02006248        0.26      0.26      0.27      1.45         0.01
  WS02006248WS02006247        0.28      0.28      0.31      0.01         0.01
  WS02006247WS02006245        0.32      0.33      0.32      2.03         0.28
  WS02006245WS02006243        0.33      0.33      0.43      0.12         0.01
  WS02006243WS02006242        0.46      0.46      0.76      0.01         0.01
  WS02006242WS02006240        0.74      0.74      0.85      0.47         0.01
  WS02006240WS02006239        0.76      0.76      0.81      0.20         0.01
  WS02006239WS02006238        1.04      1.04      1.37      0.22         0.01
  WS02006238WS02006235        1.36      1.36      1.55      0.01         0.01
  WS02006235WS02006234        0.87      0.87      1.27      5.46         0.01
  WS02006234WS02006232        1.07      1.07      1.85      0.03         0.03
  WS02006232WS02006231        0.69      0.69      1.85      0.07         0.01
  WS02006231WS02006230        0.40      0.40      0.73      5.61         0.01
  WS02006230WS02006229        2.59      2.93      2.59      5.87         2.59
  WS02006228WS02006109        2.21      2.40      2.21      5.09         2.21
  WS02006116WS02004401        0.20      0.20      0.21      0.17         0.17
  WS02006115WS02006116        0.14      0.14      0.14      0.11         0.11
[...]
  YS02001765YS02001762        5.84      5.84      5.87      0.01         0.01
  YS02001770YS02001767        5.81      5.81      5.81      0.18         0.69
  YS02001774YS02001770        5.80      5.80      5.86      0.01         0.01
  YS02001779YS02001774        5.67      5.67      5.86      0.01         0.01
  YS02001649YS02001757        5.87      5.87      5.98      0.01         0.01
  YS02001767YS02001765        5.81      5.81      5.84      0.01         0.01
  YS02006561YS02001783        0.77      0.77      1.06      0.01         0.01
  YS02001783YS02001784        1.03      1.06      1.03      1.39         1.02
  YS02001784YS02001785        0.98      1.03      0.98      2.39         0.98
  YS02001788YS02001790        0.93      0.93      1.89      0.01         0.01
  YS02001790YS02001791        1.89      1.89      2.01      0.87         0.85
  YS02001791YS02001793        2.01      2.01      2.42      0.01         0.01
  YS02001910YS02001907        1.07      1.07      1.74      0.01         0.01
  YS02001786YS02001788        0.93      0.98      0.93      1.98         0.93
  YS02001915YS02001910        0.89      0.89      1.07      0.01         0.01
  YS02001918YS02001915        0.71      0.71      0.89      0.01         0.01
  YS02001923YS02001920        0.54      0.54      0.74      0.01         0.01
  YS02001920YS02001918        0.71      0.71      0.74      0.01         0.01
  YS02001629YS02163301        5.80      5.80      5.81      0.01         0.01
  YS02001619YS02001622        5.47      5.47      5.50      0.01         0.01
  YS02001622YS02001625        5.50      5.50      5.76      0.01         0.01
  YS02001625YS02001629        5.48      5.48      5.76      0.01         0.01
  YS02163301YS02001633        5.81      5.81      5.84      0.01         0.01
  YS02163601YS02164001        5.84      5.84      5.87      0.01         0.01
  YS02164001YS02001641        5.84      5.84      5.85      0.01         0.03
  YS02001641YS02001644        5.85      5.85      5.85      1.52         1.60
  YS02001647YS02001649        5.75      5.75      5.87      0.01         0.01
  YS02006553YS02006556        1.30      1.30      1.83      0.01         0.01
  YS02006556YS02006558        1.53      1.53      1.91      0.01         0.01
  YS02001907YS02006553        2.43      2.43      2.68      0.01         0.01
  YS02006558YS02006561        0.91      1.26      0.91      2.24         0.91
  YS02001633YS02163601        5.83      5.83      5.87      0.01         0.01
  YS02001644YS02001647        5.75      5.75      5.85      0.01         0.01
  YS02001745YS02001748        0.01      0.01      5.30      0.01         0.01
  YS02001748YS02001751        5.35      5.35      5.48      0.01         0.01
  YS02001751YS02001754        5.48      5.48      5.69      0.01         0.01
  YS02001754YS02001757        5.74      5.74      5.98      0.01         0.01
  YS02001882YS02001884        0.90      0.90      0.93      0.01         0.01
  YS02001884YS02001887        0.97      0.97      1.00      0.01         0.01
  YS02001890YS02001895        0.88      0.88      1.08      0.01         0.01
  YS02001895YS02001898        0.87      0.87      0.88      0.01         0.01
  YS02001898YS02001901        0.89      0.89      0.97      0.01         0.01
  YS02001901YS02001904        0.94      0.94      0.97      0.01         0.01
  YS02001904YS02001907        0.94      0.94      1.85      0.01         0.01
  YS02001887YS02001890        1.02      1.02      1.04      0.01         0.01
  YS02001652YS02001649        5.76      5.76      5.87      0.01         0.01
  YS02001655YS02001652        5.50      5.50      5.73      0.01         0.01
  YS02001658YS02001655        5.33      5.33      5.50      0.01         0.01
  YS02001661YS02001658        0.14      0.14      5.33      0.01         0.01
  YS02001664YS02001661        0.01      0.01      0.92      0.01         0.01
  HS02004881HS02006253        0.01      0.01      0.08      0.01         0.01
  YS02001793JiankangQianchi        2.32      2.32      4.42      0.01         0.01
  YS02001757CaochengTiaoxuchi        5.21      5.21      5.98      0.01         0.01
  
  
  ***************
  Pumping Summary
  ***************
  
  ---------------------------------------------------------------------------------------------------------
                                                  Min       Avg       Max     Total     Power    % Time Off
                        Percent   Number of      Flow      Flow      Flow    Volume     Usage    Pump Curve
  Pump                 Utilized   Start-Ups       LPS       LPS       LPS  10^6 ltr     Kw-hr    Low   High
  ---------------------------------------------------------------------------------------------------------
  CC-Pump-1               36.16           3      0.00    139.60    200.00     1.320      0.95    0.0    0.0
  CC-Pump-2               12.76           3      0.00     99.33    199.97     0.360      0.37    0.0    0.0
  JK-Pump-1               57.45           5      0.00    232.33    300.00     3.491     52.63    0.0    0.0
  JK-Pump-2               51.06           4      0.00    468.67    683.00     6.017     84.01    0.0   95.3
  XR-Pump-1              100.00           1      0.00     93.79     95.00     2.622     27.04    0.0    0.0
  XR-Pump-2               97.87           2      0.00     93.21     95.00     2.508     24.59    0.0    0.0
  XR-Pump-3               95.75           3      0.00     93.14     95.00     2.451     23.41    0.0    0.0
  XR-Pump-4               95.75           3      0.00     93.14     95.00     2.451     23.41    0.0    0.0
  
  
  ***************************
  Link Pollutant Load Summary
  ***************************
  
  ------------------------------------------------------------------------------------------
                                 COD            SS            TN            TP         NH4-N
  Link                            kg            kg            kg            kg            kg
  ------------------------------------------------------------------------------------------
  WS02003066WSF200           651.428      1202.479        18.100         1.636         9.662
  WS02006287WS02006284       268.030       498.149         9.346         0.943         5.214
  WS02006284WS02006280       268.513       498.926         9.393         0.949         5.243
  WS02006280WS02006229       268.477       498.857         9.391         0.948         5.242
  WS02006229WS02006228       653.130      1206.184        17.685         1.573         9.380
  WS02006256WS02006235       200.782       368.128         4.392         0.339         2.216
  WS02006253WS02006251        48.803        94.501         1.066         0.079         0.526
  WS02006252WS02006251       143.890       260.682         3.046         0.224         1.504
  WS02006251WS02006249       188.722       348.089         4.039         0.298         1.996
  WS02006249WS02006248       187.660       346.071         4.013         0.295         1.982
  WS02006248WS02006247       187.839       346.409         4.021         0.296         1.987
  WS02006247WS02006245       187.949       346.590         4.022         0.296         1.987
  WS02006245WS02006243       188.132       346.950         4.025         0.296         1.989
  WS02006243WS02006242       189.046       348.534         4.046         0.298         1.999
  WS02006242WS02006240       190.636       351.342         4.080         0.301         2.016
  WS02006240WS02006239       193.029       355.644         4.133         0.304         2.042
  WS02006239WS02006238       196.245       361.234         4.217         0.312         2.086
  WS02006238WS02006235       198.121       364.397         4.264         0.316         2.111
  WS02006235WS02006234       387.293       712.039         8.373         0.632         4.181
  WS02006234WS02006232       387.105       711.670         8.372         0.632         4.181
  WS02006232WS02006231       386.675       710.893         8.362         0.631         4.175
  WS02006231WS02006230       386.635       710.821         8.361         0.631         4.175
  WS02006230WS02006229       385.620       709.012         8.335         0.629         4.162
  WS02006228WS02006109       652.039      1204.257        17.645         1.569         9.358
  WS02006116WS02004401       662.337      1222.062        18.379         1.660         9.807
  WS02006115WS02006116       663.806      1224.682        18.419         1.663         9.828
  WS02006113WS02006111       657.849      1213.135        18.353         1.660         9.806
  WS02006112WS02006115       665.043      1226.871        18.462         1.667         9.852
  WS02006111WS02006112       657.214      1211.999        18.334         1.658         9.795
  WS02006110WS02006113       658.255      1213.854        18.370         1.662         9.815
  WS02006109WS02006110       659.438      1215.914        18.426         1.668         9.848
  WS02004411WS02004412       653.498      1206.094        18.191         1.646         9.714
  WS02004401WS02004402       660.949      1219.596        18.335         1.656         9.782
  WS02004413WS02003067       651.739      1203.031        18.112         1.638         9.668
  WS02004412WS02004413       652.690      1204.677        18.160         1.643         9.696
  WS02004410WS02004411       654.233      1207.393        18.217         1.649         9.729
  WS02004409WS02004410       655.032      1208.806        18.245         1.651         9.744
  WS02004407WS02004409       655.748      1210.085        18.266         1.653         9.755
  WS02004406WS02004407       655.972      1210.500        18.268         1.653         9.756
  WS02004405WS02004406       657.499      1213.179        18.331         1.660         9.792
  WS02004404WS02004405       658.783      1215.533        18.342         1.660         9.795
  WS02004403WS02004404       658.429      1215.108        18.258         1.648         9.741
  WS02004402WS02004403       659.575      1217.145        18.295         1.652         9.761
  WS02004139WS02001211      1411.234      2324.838       117.389        14.376        72.494
  WS02004138WS02004139      1417.580      2335.325       117.899        14.438        72.808
  WS02003067WS02003066       651.515      1202.632        18.105         1.637         9.664
  WS02001213WS02003059      1444.331      2377.072       120.779        14.803        74.623
  WS02001212WS02001213      1453.349      2391.891       121.532        14.895        75.088
  WS02001211WS02001212      1455.499      2395.383       121.721        14.919        75.205
  WS02003072WS02003073      2197.282      3741.316       148.835        17.687        90.515
  WS02003069WS02003072      2201.687      3748.457       149.225        17.735        90.758
  WS02003060WS02003069      2203.979      3752.304       149.390        17.755        90.858
  WS02003059WS02003060      1441.297      2372.007       120.551        14.775        74.483
  HS02004901HS02004770        10.270        19.476         0.195         0.015         0.091
  HS02004876HS02004881        37.315        72.573         0.843         0.062         0.416
  HS02004870HS02004876        28.158        54.624         0.678         0.051         0.338
  HS02004842HS02004848         5.467        10.276         0.115         0.008         0.053
  HS02004837HS02004842        10.071        17.580         0.584         0.067         0.347
  HS02004830HS02004837        65.637       112.701         4.556         0.546         2.785
  HS02004824HS02004830        66.388       113.903         4.628         0.555         2.829
  HS02004817HS02004824        88.203       156.969         5.083         0.584         3.051
  HS02004770HS02004777        39.294        75.462         0.819         0.055         0.377
  HS02004799HS02004480       131.400       245.350         3.680         0.335         1.932
  HS02004792HS02004799       119.080       220.650         3.497         0.327         1.853
  HS02004788HS02004792        68.393       126.851         2.388         0.235         1.309
  HS02004785HS02004788        40.731        77.755         0.969         0.074         0.471
  HS02004777HS02004785        40.057        76.662         0.908         0.067         0.434
  HS02004480HS02004478       165.938       312.565         4.243         0.375         2.195
  HS02004479HS02004480        38.145        72.973         0.884         0.079         0.462
  HS02004862HS02004870        21.015        40.114         0.536         0.043         0.270
  HS02004848HS02004852         8.057        15.279         0.167         0.011         0.077
  HS02004856HS02004862        14.071        27.339         0.284         0.019         0.133
  HS02004852HS02004856         8.064        15.290         0.167         0.011         0.077
  HS02004802HS02004478       102.880       186.875         5.162         0.575         3.055
  HS02004478WS02006287       268.231       498.489         9.363         0.945         5.224
  HS02004817HS02004807        86.884       154.853         4.956         0.568         2.972
  HS02004807HS02004802       103.107       187.230         5.194         0.580         3.075
  YS02001759YS02001757       292.602       531.301         5.878         0.408         2.875
  YS02001762YS02001759       155.155       283.629         3.277         0.232         1.622
  YS02001765YS02001762       156.335       286.578         3.323         0.236         1.649
  YS02001770YS02001767       157.584       290.711         3.188         0.214         1.553
  YS02001774YS02001770       221.592       422.024         4.326         0.286         2.093
  YS02001779YS02001774       221.083       420.993         4.423         0.301         2.160
  YS02001649YS02001757       373.808       668.845         7.597         0.522         3.664
  YS02001767YS02001765       157.718       289.771         3.370         0.240         1.674
  YS02006561YS02001783       935.941      1716.430        19.826         1.488         9.894
  YS02001783YS02001784       935.830      1716.258        19.822         1.487         9.892
  YS02001784YS02001785       943.151      1727.982        20.535         1.576        10.338
  YS02001788YS02001790       943.725      1728.897        20.607         1.586        10.383
  YS02001790YS02001791       944.814      1730.669        20.709         1.598        10.447
  YS02001791YS02001793       944.715      1730.496        20.704         1.598        10.444
  YS02001910YS02001907       330.090       599.210         8.228         0.641         4.250
  YS02001786YS02001788       943.336      1728.281        20.562         1.580        10.355
  YS02001915YS02001910       330.178       599.348         8.184         0.635         4.221
  YS02001918YS02001915       159.755       277.677         4.653         0.433         2.533
  YS02001923YS02001920       137.509       241.243         2.669         0.188         1.299
  YS02001926YS02001923       136.576       239.719         2.592         0.178         1.251
  YS02001929YS02001926       136.172       239.033         2.555         0.174         1.228
  YS02001920YS02001918       157.665       273.587         4.582         0.426         2.494
  YS02001629YS02163301       103.503       183.397         2.171         0.140         1.012
  YS02001619YS02001622       146.392       262.925         3.031         0.197         1.414
  YS02001622YS02001625       145.234       261.097         3.003         0.195         1.401
  YS02001625YS02001629       104.593       185.200         2.195         0.142         1.023
  YS02163301YS02001633       103.229       182.935         2.164         0.140         1.009
  YS02163601YS02164001       362.038       646.202         7.116         0.502         3.403
  YS02164001YS02001641       361.547       645.378         7.096         0.500         3.392
  YS02001641YS02001644       361.805       645.741         7.095         0.500         3.391
  YS02001647YS02001649       432.794       781.107         8.715         0.601         4.182
  YS02006553YS02006556       657.478      1200.123        14.229         1.094         7.176
  YS02006556YS02006558       657.399      1199.966        14.196         1.090         7.154
  YSB6556YSB1171              21.952        42.195         0.451         0.038         0.229
  YS02001907YS02006553       657.577      1200.331        14.242         1.096         7.185
  YS02006558YS02006561       935.965      1716.469        19.826         1.487         9.894
  YS02001633YS02163601       362.730       647.273         7.096         0.498         3.387
  YS02001644YS02001647       437.805       790.242         8.788         0.606         4.215
  YS02001745YS02001748       209.670       385.797         4.699         0.326         2.343
  YS02001748YS02001751       208.126       382.790         4.769         0.339         2.395
  YS02001751YS02001754       207.181       381.225         4.759         0.340         2.392
  YS02001754YS02001757       207.948       382.381         4.923         0.362         2.499
  YS02001882YS02001884         2.593         4.469         0.052         0.004         0.026
  YS02001884YS02001887         7.033        12.467         0.137         0.011         0.068
  YS02001890YS02001895       389.459       720.642         7.189         0.539         3.508
  YS02001895YS02001898       389.279       720.392         7.182         0.539         3.504
  YS02001898YS02001901       389.053       720.004         7.177         0.538         3.502
  YS02001901YS02001904       388.892       719.769         7.184         0.540         3.507
  YS02001904YS02001907       389.091       720.066         7.237         0.547         3.541
  YS02001887YS02001890       390.277       721.875         7.244         0.546         3.541
  YS02001652YS02001649       158.887       290.100         3.245         0.233         1.520
  YS02001655YS02001652       159.376       290.907         3.258         0.234         1.527
  YS02001658YS02001655       158.688       289.803         3.167         0.222         1.468
  YS02001661YS02001658       162.922       297.395         3.252         0.228         1.508
  YS02001664YS02001661       176.904       320.539         3.565         0.249         1.651
  YSB1154YSB6556              21.532        41.527         0.402         0.032         0.198
  YSB1174YSB1171              14.654        28.289         0.298         0.024         0.150
  YSB1171HS02004479           38.104        72.907         0.888         0.079         0.465
  HS02004881HS02006253        42.167        82.280         0.931         0.068         0.458
  YS02001793JiankangQianchi       944.924      1730.790        20.702         1.597        10.442
  YS02001757CaochengTiaoxuchi       470.748       847.080         9.991         0.725         4.923
  WSF200WS02003060           651.386      1202.394        18.102         1.637         9.663
  1                         2203.322      3750.557       149.532        17.776        90.957
  CC-Pump-1                  112.873       204.527         2.378         0.174         1.172
  CC-Pump-2                   30.694        55.634         0.646         0.047         0.318
  JK-Pump-1                  230.120       424.873         4.932         0.377         2.475
  JK-Pump-2                  498.175       925.247        10.464         0.791         5.225
  XR-Pump-1                  380.441       625.541        31.961         3.920        19.755
  XR-Pump-2                  354.333       583.769        29.455         3.607        18.189
  XR-Pump-3                  343.221       565.989        28.395         3.474        17.527
  XR-Pump-4                  343.221       565.989        28.395         3.474        17.527
  

  Analysis begun on:  Thu Jul 15 21:46:57 2021
  Analysis ended on:  Thu Jul 15 21:47:00 2021
  Total elapsed time: 00:00:03