
  EPA STORM WATER MANAGEMENT MODEL - VERSION 5.1 (Build 5.3.0.dev0)
  --------------------------------------------------------------

  WARNING 04: minimum elevation drop used for Conduit WS02004404WS02004405
  WARNING 03: negative offset ignored for Link YS02001904YS02001907
  
  *********************************************************
  NOTE: The summary statistics displayed in this report are
  based on results found at every computational time step,  
  not just on results from each reporting time step.
  *********************************************************
  
  ****************
  Analysis Options
  ****************
  Flow Units ............... LPS
  Process Models:
    Rainfall/Runoff ........ YES
    RDII ................... NO
    Snowmelt ............... NO
    Groundwater ............ NO
    Flow Routing ........... YES
    Ponding Allowed ........ NO
    Water Quality .......... YES
  Infiltration Method ...... HORTON
  Flow Routing Method ...... DYNWAVE
  Surcharge Method ......... EXTRAN
  Starting Date ............ 08/28/2015 08:00:00
  Ending Date .............. 08/28/2015 15:50:00
  Antecedent Dry Days ...... 8.0
  Report Time Step ......... 00:01:00
  Wet Time Step ............ 00:01:00
  Dry Time Step ............ 00:01:00
  Routing Time Step ........ 5.00 sec
  Variable Time Step ....... YES
  Maximum Trials ........... 8
  Number of Threads ........ 4
  Head Tolerance ........... 0.001500 m
  
  
  **************************        Volume         Depth
  Runoff Quantity Continuity     hectare-m            mm
  **************************     ---------       -------
  Total Precipitation ......         5.556        12.164
  Evaporation Loss .........         0.000         0.000
  Infiltration Loss ........         1.002         2.194
  Surface Runoff ...........         3.688         8.075
  Final Storage ............         0.866         1.897
  Continuity Error (%) .....        -0.019
  
  
  **************************           COD            SS            TN            TP         NH4-N
  Runoff Quality Continuity             kg            kg            kg            kg            kg
  **************************    ----------    ----------    ----------    ----------    ----------
  Initial Buildup ..........     41378.656     70582.865      1804.177       168.684      1032.807
  Surface Buildup ..........        19.275        34.271         2.335         0.213         1.362
  Wet Deposition ...........         0.000         0.000         0.000         0.000         0.000
  Sweeping Removal .........         0.000         0.000         0.000         0.000         0.000
  Infiltration Loss ........        84.023       157.502         1.599         0.111         0.761
  BMP Removal ..............         0.000         0.000         0.000         0.000         0.000
  Surface Runoff ...........      3122.074      5752.154        60.620         4.098        28.771
  Remaining Buildup ........     38190.779     64705.500      1744.271       164.686      1004.628
  Continuity Error (%) .....         0.003         0.003         0.001         0.001         0.001
  
  
  **************************        Volume        Volume
  Flow Routing Continuity        hectare-m      10^6 ltr
  **************************     ---------     ---------
  Dry Weather Inflow .......         0.616         6.165
  Wet Weather Inflow .......         3.687        36.872
  Groundwater Inflow .......         0.000         0.000
  RDII Inflow ..............         0.000         0.000
  External Inflow ..........         0.102         1.024
  External Outflow .........         1.820        18.205
  Flooding Loss ............         2.164        21.643
  Evaporation Loss .........         0.000         0.000
  Exfiltration Loss ........         0.000         0.000
  Initial Stored Volume ....         0.076         0.761
  Final Stored Volume ......         0.630         6.295
  Continuity Error (%) .....        -2.952
  
  
  **************************           COD            SS            TN            TP         NH4-N
  Quality Routing Continuity            kg            kg            kg            kg            kg
  **************************    ----------    ----------    ----------    ----------    ----------
  Dry Weather Inflow .......      1541.201      2465.922       147.955        18.494        92.472
  Wet Weather Inflow .......      3121.430      5751.088        60.606         4.097        28.764
  Groundwater Inflow .......         0.000         0.000         0.000         0.000         0.000
  RDII Inflow ..............         0.000         0.000         0.000         0.000         0.000
  External Inflow ..........       183.418       293.469        17.608         2.201        11.005
  External Outflow .........      2178.032      3707.405       147.797        17.570        89.901
  Flooding Loss ............      1979.243      3623.691        51.161         4.436        26.876
  Exfiltration Loss ........         0.000         0.000         0.000         0.000         0.000
  Mass Reacted .............         0.000         0.000         0.000         0.000         0.000
  Initial Stored Mass ......         0.000         0.000         0.000         0.000         0.000
  Final Stored Mass ........       539.788       925.006        23.542         2.499        13.597
  Continuity Error (%) .....         3.074         2.989         1.623         1.162         1.412
  
  
  *************************
  Highest Continuity Errors
  *************************
  Node HS02004842 (14.53%)
  Node JK-storage (-13.11%)
  Node YS02001884 (10.66%)
  Node YSB1171 (2.74%)
  Node HS02004817 (2.73%)
  
  
  ***************************
  Time-Step Critical Elements
  ***************************
  Link WS02006252WS02006251 (55.77%)
  Link WS02006280WS02006229 (12.66%)
  Link WS02006238WS02006235 (8.34%)
  Link YS02001793JiankangQianchi (5.37%)
  Link YS02006556YS02006558 (4.49%)
  
  
  ********************************
  Highest Flow Instability Indexes
  ********************************
  Link WS02006113WS02006111 (51)
  Link YS02001619YS02001622 (37)
  Link YS02001629YS02163301 (37)
  Link YS02163601YS02164001 (35)
  Link YS02163301YS02001633 (35)
  
  
  *************************
  Routing Time Step Summary
  *************************
  Minimum Time Step           :     0.45 sec
  Average Time Step           :     1.30 sec
  Maximum Time Step           :     5.00 sec
  Percent in Steady State     :    -0.00
  Average Iterations per Step :     4.44
  Percent Not Converging      :    20.75
  
  
  ***************************
  Subcatchment Runoff Summary
  ***************************
  
  ------------------------------------------------------------------------------------------------------------------------------
                            Total      Total      Total      Total     Imperv       Perv      Total       Total     Peak  Runoff
                           Precip      Runon       Evap      Infil     Runoff     Runoff     Runoff      Runoff   Runoff   Coeff
  Subcatchment                 mm         mm         mm         mm         mm         mm         mm    10^6 ltr      LPS
  ------------------------------------------------------------------------------------------------------------------------------
  sub0                      12.16       0.00       0.00       0.65      11.27       0.20      11.47        0.01     1.99   0.943
  sub1                      12.16       0.00       0.00       1.12      10.73       0.22      10.95        0.07    14.96   0.900
  sub2                      12.16       0.00       0.00       4.23       7.58       0.27       7.85        0.07    15.08   0.646
  sub3                      12.16       0.00       0.00       4.29       7.54       0.21       7.75        0.17    34.61   0.637
  sub4                      12.16       0.00       0.00       1.19      10.57       0.14      10.71        0.22    42.34   0.881
  sub5                      12.16       0.00       0.00       0.69      11.21       0.16      11.38        0.13    26.18   0.935
  sub7                      12.16       0.00       0.00       0.88      11.01       0.22      11.22        0.04     7.95   0.923
  sub8                      12.16       0.00       0.00       0.89      11.00       0.21      11.20        0.07    14.89   0.921
  sub9                      12.16       0.00       0.00       0.89      10.99       0.21      11.20        0.05    11.18   0.921
  sub10                     12.16       0.00       0.00       0.79      11.10       0.18      11.28        0.12    25.49   0.928
  sub11                     12.16       0.00       0.00       0.78      11.12       0.19      11.31        0.13    27.35   0.930
  sub12                     12.16       0.00       0.00       1.27      10.53       0.31      10.85        0.09    20.52   0.892
  sub14                     12.16       0.00       0.00       0.89      10.99       0.20      11.20        0.11    22.08   0.920
  sub15                     12.16       0.00       0.00       3.28       8.45       0.37       8.82        0.15    32.49   0.725
  sub16                     12.16       0.00       0.00       3.51       8.11       0.50       8.61        0.09    20.36   0.708
  sub17                     12.16       0.00       0.00       3.41       8.23       0.48       8.71        0.07    16.72   0.716
  sub22                     12.16       0.00       0.00       4.80       6.89       0.43       7.32        0.46   102.62   0.602
  sub23                     12.16       0.00       0.00       4.05       7.62       0.45       8.07        0.38    85.35   0.663
  sub60                     12.16       0.00       0.00       1.42       8.82       0.04       8.86        2.69   336.84   0.729
  sub61                     12.16       0.00       0.00       2.01       8.94       0.06       9.00        2.78   399.45   0.740
  sub62                     12.16       0.00       0.00       0.92       9.73       0.05       9.78        3.01   415.79   0.804
  sub63                     12.16       0.00       0.00       3.46       7.82       0.06       7.88        2.39   361.21   0.648
  sub64                     12.16       0.00       0.00       1.78       8.47       0.04       8.51        2.59   320.97   0.699
  sub65                     12.16       0.00       0.00       1.54       8.61       0.04       8.65        2.66   326.54   0.711
  sub66                     12.16       0.00       0.00       3.49       7.26       0.04       7.30        2.24   290.53   0.600
  sub67                     12.16       0.00       0.00       0.91      10.24       0.07      10.31        3.18   494.23   0.848
  sub68                     12.16       0.00       0.00       1.64       9.40       0.06       9.46        2.91   432.52   0.778
  sub69                     12.16       0.00       0.00       1.73       9.72       0.09       9.82        2.29   383.95   0.807
  sub70                     12.16      10.02       0.00       6.98      13.09       0.56      13.65        3.12   394.93   0.615
  sub71                     12.16       0.00       0.00       0.93       9.48       0.05       9.53        2.25   296.34   0.783
  sub72                     12.16       0.00       0.00       0.83       7.62       0.02       7.64        1.56   151.13   0.628
  1                         12.16      13.29       0.00       1.37      14.64       3.94      18.57        4.36   399.24   0.730
  2                         12.16       0.00       0.00       3.02       2.89       1.65       4.55        1.82   245.52   0.374
  
  
  ****************************
  Subcatchment Washoff Summary
  ****************************
  
  ------------------------------------------------------------------------------------------
                                 COD            SS            TN            TP         NH4-N
  Subcatchment                    kg            kg            kg            kg            kg
  ------------------------------------------------------------------------------------------
  sub0                         2.176         4.147         0.037         0.003         0.018
  sub1                         9.268        18.138         0.173         0.012         0.083
  sub2                         5.563        10.570         0.119         0.008         0.054
  sub3                        13.747        25.918         0.288         0.019         0.132
  sub4                        21.530        42.606         0.429         0.026         0.205
  sub5                        21.300        41.103         0.378         0.029         0.183
  sub7                         4.748         9.424         0.090         0.006         0.043
  sub8                         7.142        14.500         0.143         0.008         0.069
  sub9                         6.100        12.212         0.118         0.007         0.057
  sub10                       17.532        34.266         0.321         0.023         0.155
  sub11                       17.086        33.770         0.320         0.022         0.154
  sub12                       14.392        27.890         0.260         0.019         0.125
  sub14                       13.021        25.823         0.247         0.016         0.119
  sub15                       16.182        30.744         0.313         0.023         0.146
  sub16                       10.318        19.555         0.197         0.015         0.092
  sub17                        9.471        17.789         0.175         0.014         0.082
  sub22                       48.821        90.813         0.932         0.070         0.434
  sub23                       29.138        56.181         0.627         0.041         0.287
  sub60                      203.703       376.194         4.083         0.248         1.956
  sub61                      251.300       461.579         4.699         0.320         2.261
  sub62                      262.762       491.326         5.157         0.324         2.474
  sub63                      185.047       334.594         3.739         0.261         1.731
  sub64                      253.867       452.095         4.687         0.339         2.235
  sub65                      260.106       465.192         4.834         0.344         2.309
  sub66                      146.558       263.078         3.037         0.197         1.417
  sub67                      388.205       718.566         6.963         0.510         3.363
  sub68                      276.714       513.393         5.318         0.356         2.539
  sub69                      247.676       464.012         4.658         0.325         2.225
  sub70                      413.256       778.342         8.287         0.572         3.877
  sub71                      173.740       327.842         3.597         0.206         1.720
  sub72                      136.329       239.316         2.558         0.174         1.230
  1                          280.724       531.718         5.751         0.398         2.660
  2                           35.485        61.812         1.030         0.062         0.437
  ------------------------------------------------------------------------------------------
  System                    3783.006      6994.507        73.566         4.996        34.873
  
  
  ******************
  Node Depth Summary
  ******************
  
  ---------------------------------------------------------------------------------
                                 Average  Maximum  Maximum  Time of Max    Reported
                                   Depth    Depth      HGL   Occurrence   Max Depth
  Node                 Type       Meters   Meters   Meters  days hr:min      Meters
  ---------------------------------------------------------------------------------
  WS02001211           JUNCTION     0.76     0.81     5.65     0  03:12        0.81
  WS02001212           JUNCTION     0.47     0.53     5.59     0  03:11        0.53
  WS02001213           JUNCTION     0.70     0.79     5.55     0  03:11        0.79
  WS02003069           JUNCTION     0.49     0.63     5.21     0  03:10        0.63
  WS02003072           JUNCTION     0.55     0.68     5.05     0  03:10        0.68
  WS02003073           JUNCTION     0.33     0.42     4.49     0  03:11        0.42
  WS02003060           JUNCTION     0.43     0.56     5.49     0  03:10        0.56
  WS02003066           JUNCTION     0.23     0.33     5.88     0  03:07        0.33
  WS02003059           JUNCTION     0.75     0.84     5.53     0  03:10        0.84
  WS02003067           JUNCTION     0.57     0.75     6.07     0  03:07        0.75
  WS02004401           JUNCTION     0.67     0.99     6.99     0  03:05        0.99
  WS02004402           JUNCTION     0.70     1.01     6.97     0  03:05        1.00
  WS02004403           JUNCTION     0.72     1.01     6.94     0  03:05        1.01
  WS02004404           JUNCTION     0.79     1.07     6.92     0  03:05        1.07
  WS02004406           JUNCTION     0.80     1.04     6.87     0  03:05        1.04
  WS02004409           JUNCTION     0.48     0.76     6.53     0  03:07        0.76
  WS02004410           JUNCTION     0.50     0.77     6.49     0  03:08        0.77
  WS02004411           JUNCTION     0.52     0.77     6.45     0  03:08        0.77
  WS02004412           JUNCTION     0.53     0.77     6.41     0  03:08        0.77
  WS02004413           JUNCTION     0.69     0.92     6.39     0  03:08        0.92
  WS02004405           JUNCTION     0.79     1.06     6.91     0  03:05        1.05
  WS02006109           JUNCTION     0.75     1.12     7.74     0  03:03        1.10
  WS02006110           JUNCTION     0.74     1.03     7.61     0  03:03        1.01
  WS02006111           JUNCTION     0.22     0.39     7.10     0  03:04        0.39
  WS02006112           JUNCTION     0.84     1.21     7.10     0  03:05        1.21
  WS02006113           JUNCTION     0.33     0.52     7.41     0  03:04        0.51
  WS02006115           JUNCTION     0.56     0.91     7.05     0  03:06        0.91
  WS02006116           JUNCTION     0.64     0.98     7.02     0  03:05        0.98
  WS02006230           JUNCTION     0.73     1.19     7.94     0  03:02        1.19
  WS02006231           JUNCTION     0.48     0.88     8.00     0  04:19        0.88
  WS02006232           JUNCTION     0.61     1.08     8.12     0  04:20        1.07
  WS02006234           JUNCTION     0.54     1.09     8.25     0  04:20        1.09
  WS02006235           JUNCTION     0.57     1.17     8.34     0  04:20        1.17
  WS02006238           JUNCTION     0.59     1.21     8.36     0  04:20        1.20
  WS02006240           JUNCTION     0.48     1.15     8.44     0  04:20        1.14
  WS02006242           JUNCTION     0.53     1.23     8.50     0  07:10        1.22
  WS02006243           JUNCTION     0.40     1.17     8.59     0  05:02        1.13
  WS02006245           JUNCTION     0.37     1.13     8.62     0  05:02        1.11
  WS02006247           JUNCTION     0.38     1.16     8.66     0  05:02        1.13
  WS02006248           JUNCTION     0.32     1.10     8.69     0  05:02        1.07
  WS02006249           JUNCTION     0.35     1.09     8.69     0  04:19        1.09
  WS02006239           JUNCTION     0.54     1.19     8.40     0  04:20        1.18
  WS02006251           JUNCTION     0.32     1.38     9.05     0  04:19        1.13
  WS02006252           JUNCTION     0.22     0.94     9.18     0  04:19        0.68
  WS02006253           JUNCTION     0.35     1.43     9.07     0  04:19        1.15
  WS02006256           JUNCTION     1.68     2.35     9.28     0  00:48        2.35
  WS02004138           JUNCTION     0.19     0.20     7.45     0  00:00        0.19
  WS02004139           JUNCTION     0.71     0.75     5.66     0  03:12        0.75
  WS02004407           JUNCTION     0.22     0.33     6.65     0  03:06        0.33
  WS02006228           JUNCTION     0.75     1.19     7.84     0  03:03        1.18
  WS02006229           JUNCTION     0.73     1.21     7.90     0  03:02        1.21
  WS02006280           JUNCTION     0.07     0.20     8.47     0  03:02        0.20
  WS02006284           JUNCTION     0.37     0.56     8.96     0  03:02        0.56
  WS02006287           JUNCTION     0.10     0.30     9.25     0  03:01        0.30
  WSF200               JUNCTION     0.21     0.35     5.59     0  03:08        0.35
  HS02004901           JUNCTION     0.12     0.29    10.12     0  03:01        0.29
  HS02004881           JUNCTION     0.01     0.04     9.07     0  03:01        0.04
  HS02004876           JUNCTION     0.04     0.12     9.15     0  03:01        0.12
  HS02004870           JUNCTION     0.02     0.07     9.35     0  03:01        0.07
  HS02004862           JUNCTION     0.02     0.08     9.46     0  03:01        0.08
  HS02004856           JUNCTION     0.08     0.13     9.55     0  03:01        0.13
  HS02004852           JUNCTION     0.01     0.05     9.56     0  03:01        0.05
  HS02004848           JUNCTION     0.01     0.05     9.65     0  03:01        0.05
  HS02004842           JUNCTION     0.33     0.38     9.65     0  03:01        0.38
  HS02004837           JUNCTION     0.03     0.07     9.65     0  03:01        0.07
  HS02004830           JUNCTION     0.04     0.08     9.55     0  03:01        0.08
  HS02004824           JUNCTION     0.02     0.06     9.47     0  03:01        0.06
  HS02004817           JUNCTION     0.44     0.61     9.45     0  03:01        0.61
  HS02004807           JUNCTION     0.13     0.28     9.45     0  03:01        0.28
  HS02004802           JUNCTION     0.16     0.31     9.44     0  03:01        0.31
  HS02004799           JUNCTION     0.12     0.35     9.56     0  03:01        0.35
  HS02004792           JUNCTION     0.03     0.15     9.67     0  03:01        0.15
  HS02004788           JUNCTION     0.03     0.11    10.01     0  03:01        0.11
  HS02004785           JUNCTION     0.05     0.18    10.09     0  03:01        0.18
  HS02004777           JUNCTION     0.15     0.31    10.11     0  03:01        0.31
  HS02004770           JUNCTION     0.12     0.29    10.12     0  03:01        0.29
  HS02004480           JUNCTION     0.08     0.28     9.52     0  03:01        0.28
  HS02004479           JUNCTION     0.12     0.32     9.52     0  03:01        0.32
  HS02004478           JUNCTION     0.06     0.20     9.42     0  03:01        0.20
  YS02001745           JUNCTION     0.72     0.93     8.45     0  03:06        0.93
  YS02001748           JUNCTION     1.12     1.63     8.70     0  02:27        1.36
  YS02001751           JUNCTION     1.30     2.08     8.96     0  02:17        1.56
  YS02001754           JUNCTION     1.55     2.00     8.61     0  02:17        1.83
  YS02001762           JUNCTION     1.75     2.05     8.45     0  03:16        2.03
  YS02001765           JUNCTION     1.71     2.00     8.45     0  03:16        1.97
  YS02001767           JUNCTION     1.67     1.96     8.45     0  03:16        1.93
  YS02001770           JUNCTION     1.66     1.93     8.43     0  03:16        1.91
  YS02001774           JUNCTION     1.73     1.99     8.41     0  03:16        1.97
  YS02001779           JUNCTION     1.48     1.68     8.37     0  02:27        1.68
  YS02001882           JUNCTION     0.49     1.62     8.34     0  03:00        1.61
  YS02001884           JUNCTION     0.59     1.72     8.34     0  03:00        1.71
  YS02001759           JUNCTION     1.79     2.09     8.45     0  03:16        2.06
  YS02001887           JUNCTION     0.66     1.80     8.34     0  02:58        1.79
  YS02001890           JUNCTION     0.69     1.81     8.32     0  02:45        1.81
  YS02001898           JUNCTION     0.46     1.56     8.30     0  02:45        1.55
  YS02001901           JUNCTION     0.58     1.68     8.29     0  03:01        1.67
  YS02001904           JUNCTION     0.56     1.64     8.27     0  02:45        1.63
  YS02001907           JUNCTION     0.89     1.96     8.25     0  02:45        1.96
  YS02001910           JUNCTION     0.68     1.78     8.28     0  02:46        1.77
  YS02001915           JUNCTION     0.48     1.59     8.30     0  02:46        1.57
  YS02001918           JUNCTION     0.24     1.27     8.33     0  02:46        1.25
  YS02001619           JUNCTION     1.26     1.61     8.54     0  02:27        1.47
  YS02001629           JUNCTION     1.61     1.85     8.40     0  02:27        1.84
  YS02001641           JUNCTION     1.71     1.93     8.37     0  02:44        1.93
  YS02001644           JUNCTION     1.72     1.92     8.35     0  02:34        1.92
  YS02001652           JUNCTION     1.57     2.11     8.71     0  02:20        1.90
  YS02001655           JUNCTION     1.33     2.20     9.05     0  02:18        1.69
  YS02001920           JUNCTION     0.34     1.35     8.35     0  02:46        1.32
  YS02001923           JUNCTION     0.19     1.10     8.36     0  02:46        1.08
  YS02001926           JUNCTION     0.25     0.93     8.37     0  02:46        0.88
  YS02001929           JUNCTION     0.14     0.68     8.38     0  02:46        0.67
  YS02001658           JUNCTION     1.06     2.06     9.20     0  02:40        1.43
  YS02001661           JUNCTION     0.83     2.10     9.50     0  02:40        1.23
  YS02001664           JUNCTION     0.37     0.57     8.49     0  02:41        0.56
  YS02001622           JUNCTION     1.28     1.62     8.52     0  02:27        1.49
  YS02001633           JUNCTION     1.71     1.95     8.40     0  07:32        1.94
  YS02001649           JUNCTION     1.76     2.05     8.44     0  02:38        2.05
  YS02001757           JUNCTION     1.89     2.18     8.44     0  03:00        2.17
  YS02001895           JUNCTION     0.46     1.56     8.31     0  03:01        1.55
  YS02001625           JUNCTION     1.57     1.78     8.38     0  02:27        1.78
  YS02163301           JUNCTION     1.64     1.88     8.40     0  07:32        1.88
  YS02163601           JUNCTION     1.76     2.00     8.39     0  07:32        1.98
  YS02164001           JUNCTION     1.70     1.93     8.39     0  07:32        1.92
  YS02001647           JUNCTION     1.55     1.80     8.41     0  04:11        1.79
  YSB1154              JUNCTION     0.26     0.47     9.52     0  03:01        0.47
  YSB6556              JUNCTION     0.15     0.35     9.52     0  03:01        0.35
  YSB1174              JUNCTION     0.21     0.41     9.52     0  03:01        0.41
  YSB1171              JUNCTION     0.41     0.62     9.52     0  03:01        0.62
  YS02006553           JUNCTION     0.89     1.97     8.25     0  02:58        1.96
  YS02006561           JUNCTION     0.27     1.08     7.74     0  02:54        1.07
  YS02006556           JUNCTION     0.86     1.92     8.23     0  02:59        1.92
  YS02006558           JUNCTION     0.90     1.96     8.23     0  02:59        1.95
  YS02001783           JUNCTION     0.46     1.47     7.61     0  02:58        1.46
  YS02001784           JUNCTION     0.49     1.66     7.73     0  02:37        1.41
  YS02001786           JUNCTION     0.43     1.85     7.88     0  02:37        1.25
  YS02001788           JUNCTION     0.36     1.71     7.68     0  02:37        1.13
  YS02001790           JUNCTION     0.46     1.96     7.60     0  02:36        1.29
  YS02001791           JUNCTION     0.41     2.19     7.66     0  02:36        1.27
  YS02001793           JUNCTION     0.54     1.99     6.83     0  02:36        1.80
  WSC                  OUTFALL      0.33     0.42     1.09     0  03:11        0.42
  JK-storage           STORAGE      2.40     5.80     6.60     0  02:01        5.80
  CC-storage           STORAGE      1.15     1.44     8.44     0  03:07        1.44
  XR-storage           STORAGE      6.44     7.72     5.72     0  02:52        7.72
  
  
  *******************
  Node Inflow Summary
  *******************
  
  -------------------------------------------------------------------------------------------------
                                  Maximum  Maximum                  Lateral       Total        Flow
                                  Lateral    Total  Time of Max      Inflow      Inflow     Balance
                                   Inflow   Inflow   Occurrence      Volume      Volume       Error
  Node                 Type           LPS      LPS  days hr:min    10^6 ltr    10^6 ltr     Percent
  -------------------------------------------------------------------------------------------------
  WS02001211           JUNCTION      7.35   389.63     0  04:40       0.207          10       0.403
  WS02001212           JUNCTION      0.00   391.93     0  04:40           0        9.98       0.246
  WS02001213           JUNCTION      0.00   394.18     0  04:40           0        9.96       0.285
  WS02003069           JUNCTION      0.32  1071.87     0  03:10     0.00902        18.3       0.192
  WS02003072           JUNCTION      0.00  1071.60     0  03:10           0        18.2       0.231
  WS02003073           JUNCTION      1.82  1073.42     0  03:11      0.0514        18.3       0.267
  WS02003060           JUNCTION     16.53  1071.89     0  03:09       0.466        18.3       0.181
  WS02003066           JUNCTION      0.00   673.79     0  03:07           0        7.95       0.057
  WS02003059           JUNCTION      0.00   397.85     0  04:40           0        9.93       0.409
  WS02003067           JUNCTION      0.00   673.68     0  03:08           0        7.96       0.118
  WS02004401           JUNCTION      0.00   677.85     0  03:05           0        8.19       0.252
  WS02004402           JUNCTION      0.00   677.23     0  03:06           0        8.17       0.239
  WS02004403           JUNCTION      0.00   676.82     0  03:05           0        8.15       0.219
  WS02004404           JUNCTION      0.16   677.32     0  03:06     0.00457        8.14       0.167
  WS02004406           JUNCTION      0.00   677.89     0  03:05           0        8.11       0.403
  WS02004409           JUNCTION      0.00   677.89     0  03:06           0        8.07       0.199
  WS02004410           JUNCTION      0.00   676.00     0  03:06           0        8.05       0.228
  WS02004411           JUNCTION      0.00   674.72     0  03:06           0        8.03       0.236
  WS02004412           JUNCTION      0.00   673.92     0  03:07           0        8.01       0.255
  WS02004413           JUNCTION      0.00   673.81     0  03:08           0        7.99       0.382
  WS02004405           JUNCTION      0.04   677.56     0  03:05     0.00107        8.13       0.246
  WS02006109           JUNCTION      1.23   673.72     0  03:03      0.0347        8.23       0.236
  WS02006110           JUNCTION      0.00   673.62     0  03:03           0        8.21       0.232
  WS02006111           JUNCTION      0.00   707.56     0  03:04           0        8.19       0.040
  WS02006112           JUNCTION     16.72   685.53     0  03:05      0.0747        8.26       0.345
  WS02006113           JUNCTION      0.00   675.26     0  03:03           0         8.2       0.108
  WS02006115           JUNCTION      0.00   685.32     0  03:05           0        8.23       0.242
  WS02006116           JUNCTION      0.00   682.55     0  03:05           0        8.21       0.202
  WS02006230           JUNCTION     10.28   532.96     0  07:11        0.29        6.06       0.166
  WS02006231           JUNCTION      0.00   522.69     0  07:11           0        5.78       0.153
  WS02006232           JUNCTION      0.00   522.73     0  07:10           0         5.8       0.246
  WS02006234           JUNCTION      0.00   522.91     0  07:11           0         5.8       0.118
  WS02006235           JUNCTION      0.00   523.72     0  07:10           0        5.91       0.150
  WS02006238           JUNCTION      0.00   359.50     0  07:32           0        2.35       0.298
  WS02006240           JUNCTION      0.00   361.68     0  07:31           0        2.27       0.474
  WS02006242           JUNCTION      0.00   364.62     0  07:31           0        2.25       0.589
  WS02006243           JUNCTION      0.00   367.08     0  07:31           0        2.23       0.267
  WS02006245           JUNCTION      0.00   367.85     0  07:31           0        2.24       0.562
  WS02006247           JUNCTION      0.00   368.99     0  07:31           0        2.24       0.329
  WS02006248           JUNCTION      0.00   369.90     0  07:31           0        2.24       0.108
  WS02006249           JUNCTION      0.00   426.12     0  07:09           0        2.27       0.547
  WS02006239           JUNCTION      0.00   360.01     0  07:32           0        2.31       0.279
  WS02006251           JUNCTION      0.08   409.57     0  07:09     0.00217        2.33       0.359
  WS02006252           JUNCTION      0.00   399.96     0  07:30           0        1.86       0.026
  WS02006253           JUNCTION      1.99    86.08     0  03:01     0.00928        0.47       0.882
  WS02006256           JUNCTION      0.00   983.00     0  02:10           0        9.57       0.012
  WS02004138           JUNCTION      0.00   380.00     0  00:00           0        9.86       0.065
  WS02004139           JUNCTION      0.32   394.45     0  00:00     0.00905        9.86       0.464
  WS02004407           JUNCTION      0.00   678.58     0  03:05           0        8.07       0.086
  WS02006228           JUNCTION      0.00   672.75     0  03:03           0        8.21       0.165
  WS02006229           JUNCTION      0.00   670.80     0  03:03           0        8.22       0.153
  WS02006280           JUNCTION      0.00   413.62     0  03:02           0        2.17       0.003
  WS02006284           JUNCTION      0.10   413.57     0  03:02      0.0027        2.17       0.040
  WS02006287           JUNCTION      0.00   413.23     0  03:01           0        2.17       0.034
  WSF200               JUNCTION      0.00   673.95     0  03:08           0        7.95       0.052
  HS02004901           JUNCTION     20.36    20.36     0  03:01      0.0902      0.0904       1.992
  HS02004881           JUNCTION      7.95    84.19     0  03:01      0.0378        0.41       0.064
  HS02004876           JUNCTION     14.96    76.75     0  03:01      0.0728       0.373       0.147
  HS02004870           JUNCTION     14.89    62.15     0  03:01      0.0716         0.3       0.038
  HS02004862           JUNCTION     15.28    47.68     0  03:01      0.0788       0.229       0.077
  HS02004856           JUNCTION     11.18    32.72     0  03:01      0.0539       0.152       0.963
  HS02004852           JUNCTION      0.00    21.94     0  03:01           0      0.0979       0.059
  HS02004848           JUNCTION     34.61    34.61     0  03:01       0.174       0.174       0.029
  HS02004842           JUNCTION      0.00    12.41     0  03:01           0      0.0895      16.997
  HS02004837           JUNCTION     31.84    43.95     0  03:01       0.303        0.38       0.215
  HS02004830           JUNCTION      0.15    43.86     0  03:01     0.00423        0.37       0.334
  HS02004824           JUNCTION     42.39    85.90     0  03:01       0.225       0.594       0.092
  HS02004817           JUNCTION      0.60    86.29     0  03:01      0.0169        0.61       2.809
  HS02004807           JUNCTION     27.35   112.30     0  03:01       0.131       0.726       0.605
  HS02004802           JUNCTION      0.00   111.37     0  03:01           0       0.723       0.547
  HS02004799           JUNCTION     22.08   258.93     0  03:01       0.107        1.24       0.223
  HS02004792           JUNCTION    102.90   237.99     0  03:01        0.47        1.14       0.037
  HS02004788           JUNCTION     34.16   135.93     0  03:01       0.199       0.669       0.059
  HS02004785           JUNCTION      0.15   103.52     0  03:01     0.00423       0.471       0.107
  HS02004777           JUNCTION      0.03   104.16     0  03:01    0.000846       0.472       1.115
  HS02004770           JUNCTION     85.35   105.10     0  03:01       0.385       0.473       0.660
  HS02004480           JUNCTION      0.00   302.45     0  03:01           0        1.46       0.076
  HS02004479           JUNCTION      0.00    44.91     0  03:02           0       0.232       0.318
  HS02004478           JUNCTION      0.00   413.09     0  03:01           0        2.17       0.014
  YS02001745           JUNCTION    336.84   367.00     0  02:27        2.69         2.7       0.399
  YS02001748           JUNCTION      0.04   534.96     0  02:27     0.00127        2.69       0.807
  YS02001751           JUNCTION      0.01   345.91     0  02:17     0.00031        2.65       0.893
  YS02001754           JUNCTION      0.26   341.35     0  03:01     0.00733        2.64       0.941
  YS02001762           JUNCTION      0.00   291.63     0  02:38           0        2.06       1.031
  YS02001765           JUNCTION      0.00   291.41     0  02:38           0        2.07       1.183
  YS02001767           JUNCTION      0.54   290.80     0  02:38      0.0151        2.09       1.730
  YS02001770           JUNCTION    415.94   621.97     0  03:09        3.01        3.73       0.840
  YS02001774           JUNCTION      0.00   622.58     0  03:08           0        2.34       1.077
  YS02001779           JUNCTION      0.01   622.87     0  03:08    0.000141        2.31       0.671
  YS02001882           JUNCTION      0.00    36.03     0  02:39           0      0.0158      13.952
  YS02001884           JUNCTION      0.00    70.78     0  02:38           0      0.0534      11.930
  YS02001759           JUNCTION    399.49   573.01     0  02:39        2.78        4.09       0.560
  YS02001887           JUNCTION    494.68   494.85     0  03:01        3.19        3.23       0.250
  YS02001890           JUNCTION      0.00   494.92     0  03:01           0        3.18       0.277
  YS02001898           JUNCTION      0.00   495.76     0  03:01           0        3.16       0.081
  YS02001901           JUNCTION      0.00   495.80     0  03:01           0        3.16       0.204
  YS02001904           JUNCTION      0.00   495.96     0  03:01           0        3.16       0.176
  YS02001907           JUNCTION      0.00   950.55     0  03:01           0        7.02       0.336
  YS02001910           JUNCTION      0.00   455.78     0  03:00           0        3.88       0.293
  YS02001915           JUNCTION    296.36   455.35     0  03:00        2.25         3.9       0.143
  YS02001918           JUNCTION      0.00   215.32     0  02:47           0        1.66       0.071
  YS02001619           JUNCTION    290.53   290.53     0  03:01        2.24        2.24       0.552
  YS02001629           JUNCTION      0.00   201.73     0  02:17           0        1.69       1.739
  YS02001641           JUNCTION      0.00   400.99     0  02:28           0        4.25       0.500
  YS02001644           JUNCTION    321.01  1398.38     0  03:01        2.59        10.9       0.243
  YS02001652           JUNCTION      0.00   373.09     0  03:01           0        2.34       1.006
  YS02001655           JUNCTION      0.15   375.04     0  02:18     0.00434        2.36       1.020
  YS02001920           JUNCTION      2.87   214.65     0  02:47      0.0809        1.65       0.151
  YS02001923           JUNCTION      0.04   240.57     0  02:47     0.00106        1.56       0.049
  YS02001926           JUNCTION      0.05   198.51     0  02:47     0.00147        1.56       0.209
  YS02001929           JUNCTION    151.13   151.13     0  03:01        1.56        1.56       0.040
  YS02001658           JUNCTION      0.00   598.05     0  02:23           0         2.4       0.928
  YS02001661           JUNCTION      0.00   629.32     0  02:39           0        2.76      -0.106
  YS02001664           JUNCTION    361.21   361.21     0  03:01        2.38        2.74       0.193
  YS02001622           JUNCTION      0.00   291.08     0  03:01           0        2.22       1.445
  YS02001633           JUNCTION    326.74   397.00     0  02:35        2.66        4.31       0.754
  YS02001649           JUNCTION      0.00   829.47     0  02:35           0        6.35       0.581
  YS02001757           JUNCTION      0.00  1580.45     0  02:35           0        8.48       1.100
  YS02001895           JUNCTION      0.00   495.31     0  03:01           0        3.17       0.152
  YS02001625           JUNCTION      0.00   290.79     0  03:01           0        2.19       1.812
  YS02163301           JUNCTION      0.00   201.49     0  02:24           0        1.67       1.461
  YS02163601           JUNCTION      0.11   397.08     0  02:35      0.0031        4.27       0.708
  YS02164001           JUNCTION      0.00   397.35     0  02:35           0        4.25       0.475
  YS02001647           JUNCTION      0.00   735.04     0  03:09           0         5.6       0.503
  YSB1154              JUNCTION     26.18    26.18     0  03:01       0.129        0.13       1.132
  YSB6556              JUNCTION      0.00    25.83     0  03:01           0        0.13       0.969
  YSB1174              JUNCTION     20.52    20.52     0  03:01      0.0948      0.0953       1.369
  YSB1171              JUNCTION      0.00    45.30     0  03:01           0       0.231       2.821
  YS02006553           JUNCTION      0.00   705.19     0  03:32           0        6.57       0.230
  YS02006561           JUNCTION      0.00   981.02     0  03:12           0        9.45       0.007
  YS02006556           JUNCTION      0.00   705.05     0  03:32           0        6.57       0.154
  YS02006558           JUNCTION    433.40   982.45     0  03:12        2.93        9.48       0.047
  YS02001783           JUNCTION      0.00   980.94     0  03:13           0        9.45       0.021
  YS02001784           JUNCTION      1.06   982.19     0  03:12      0.0299        9.47       0.032
  YS02001786           JUNCTION      0.06   982.06     0  03:17     0.00159        9.47       0.034
  YS02001788           JUNCTION      0.07   982.23     0  03:11       0.002        9.47       0.021
  YS02001790           JUNCTION      0.15   982.40     0  03:13     0.00437        9.47       0.008
  YS02001791           JUNCTION      0.00   982.69     0  03:13           0        9.47       0.006
  YS02001793           JUNCTION      0.00   983.24     0  03:12           0        9.48      -0.019
  WSC                  OUTFALL       0.00  1073.57     0  03:11           0        18.2       0.000
  JK-storage           STORAGE       0.00   982.85     0  03:12           0        9.63     -11.594
  CC-storage           STORAGE       0.00  1580.86     0  02:35           0        5.83       1.096
  XR-storage           STORAGE     844.76   844.76     0  03:01        11.8        12.4      -0.001
  
  
  **********************
  Node Surcharge Summary
  **********************
  
  Surcharging occurs when water rises above the top of the highest conduit.
  ---------------------------------------------------------------------
                                               Max. Height   Min. Depth
                                   Hours       Above Crown    Below Rim
  Node                 Type      Surcharged         Meters       Meters
  ---------------------------------------------------------------------
  WS02004402           JUNCTION        0.05          0.007        1.733
  WS02004403           JUNCTION        0.06          0.009        2.021
  WS02004404           JUNCTION        0.25          0.070        2.710
  WS02004406           JUNCTION        0.19          0.039        2.411
  WS02004405           JUNCTION        0.22          0.056        2.744
  WS02006109           JUNCTION        2.48          0.299        1.521
  WS02006110           JUNCTION        0.97          0.115        1.735
  WS02006112           JUNCTION        1.33          0.213        1.467
  WS02006230           JUNCTION        0.36          0.113        1.457
  WS02006231           JUNCTION        0.59          0.172        1.358
  WS02006232           JUNCTION        2.19          0.380        1.100
  WS02006234           JUNCTION        1.14          0.369        0.871
  WS02006235           JUNCTION        1.55          0.465        0.825
  WS02006238           JUNCTION        1.66          0.491        0.939
  WS02006240           JUNCTION        0.76          0.435        0.955
  WS02006242           JUNCTION        0.81          0.497        0.323
  WS02006243           JUNCTION        0.46          0.463        0.307
  WS02006245           JUNCTION        0.39          0.424        0.426
  WS02006247           JUNCTION        0.40          0.453        0.307
  WS02006248           JUNCTION        0.29          0.380        0.000
  WS02006249           JUNCTION        0.32          0.390        0.000
  WS02006239           JUNCTION        0.97          0.447        0.843
  WS02006251           JUNCTION        0.10          0.355        0.825
  WS02006252           JUNCTION        0.70          0.539        0.561
  WS02006253           JUNCTION        0.11          0.389        2.091
  WS02006256           JUNCTION        6.99          2.050        0.000
  WS02006228           JUNCTION        2.44          0.361        1.839
  YS02001748           JUNCTION        5.30          0.545        0.645
  YS02001751           JUNCTION        5.47          1.084        0.116
  YS02001754           JUNCTION        5.69          0.949        0.201
  YS02001762           JUNCTION        5.87          1.054        0.096
  YS02001765           JUNCTION        5.84          1.005        0.095
  YS02001767           JUNCTION        5.81          0.959        0.071
  YS02001770           JUNCTION        5.80          0.905        0.015
  YS02001774           JUNCTION        5.86          0.987        0.063
  YS02001779           JUNCTION        5.67          0.680        0.000
  YS02001882           JUNCTION        0.89          0.619        0.211
  YS02001884           JUNCTION        0.92          0.661        0.209
  YS02001759           JUNCTION        5.89          1.087        0.123
  YS02001887           JUNCTION        0.98          0.747        0.203
  YS02001890           JUNCTION        1.01          0.760        0.000
  YS02001898           JUNCTION        0.86          0.531        0.209
  YS02001901           JUNCTION        0.95          0.676        0.194
  YS02001904           JUNCTION        0.93          0.637        0.213
  YS02001907           JUNCTION        1.77          0.950        0.000
  YS02001910           JUNCTION        1.06          0.777        0.323
  YS02001915           JUNCTION        0.88          0.587        0.413
  YS02001918           JUNCTION        0.71          0.267        0.543
  YS02001619           JUNCTION        5.47          0.610        0.000
  YS02001629           JUNCTION        5.48          0.470        0.000
  YS02001641           JUNCTION        5.85          0.934        0.166
  YS02001644           JUNCTION        5.85          0.920        0.000
  YS02001652           JUNCTION        5.73          1.082        0.048
  YS02001655           JUNCTION        5.50          1.200        0.000
  YS02001920           JUNCTION        0.74          0.346        0.794
  YS02001658           JUNCTION        5.33          1.058        0.242
  YS02001661           JUNCTION        0.11          1.028        0.362
  YS02001622           JUNCTION        5.50          0.620        0.000
  YS02001633           JUNCTION        5.83          0.929        0.131
  YS02001649           JUNCTION        5.87          1.050        0.000
  YS02001757           JUNCTION        5.98          1.178        0.032
  YS02001895           JUNCTION        0.87          0.565        0.185
  YS02001625           JUNCTION        5.76          0.780        0.000
  YS02163301           JUNCTION        5.81          0.883        0.147
  YS02163601           JUNCTION        5.87          0.996        0.084
  YS02164001           JUNCTION        5.84          0.929        0.171
  YS02001647           JUNCTION        5.75          0.798        0.102
  YS02006553           JUNCTION        1.85          0.966        0.224
  YS02006561           JUNCTION        0.76          0.284        0.866
  YS02006556           JUNCTION        1.31          0.882        0.468
  YS02006558           JUNCTION        1.27          0.861        0.539
  YS02001783           JUNCTION        1.01          0.672        0.928
  YS02001784           JUNCTION        0.99          0.861        0.629
  YS02001786           JUNCTION        0.94          1.050        0.380
  YS02001788           JUNCTION        0.88          0.908        0.572
  YS02001790           JUNCTION        1.65          1.157        0.000
  YS02001791           JUNCTION        1.76          1.394        0.526
  YS02001793           JUNCTION        2.08          0.993        1.607
  
  
  *********************
  Node Flooding Summary
  *********************
  
  Flooding refers to all water that overflows a node, whether it ponds or not.
  --------------------------------------------------------------------------
                                                             Total   Maximum
                                 Maximum   Time of Max       Flood    Ponded
                        Hours       Rate    Occurrence      Volume     Depth
  Node                 Flooded       LPS   days hr:min    10^6 ltr    Meters
  --------------------------------------------------------------------------
  WS02006248              0.01     13.87      0  05:02       0.000     0.000
  WS02006249              0.08    103.70      0  07:09       0.014     0.000
  WS02006256              3.77    773.73      0  05:02       5.929     0.000
  YS02001779              3.06    622.84      0  03:08       2.291     0.000
  YS02001890              0.01      1.08      0  03:00       0.000     0.000
  YS02001907              0.57    414.39      0  03:01       0.449     0.000
  YS02001619              0.01     24.23      0  02:27       0.000     0.000
  YS02001629              0.01     24.73      0  02:27       0.000     0.000
  YS02001644              4.55   1398.22      0  03:01       9.353     0.000
  YS02001655              0.01    222.10      0  02:19       0.000     0.000
  YS02001622              0.01     12.17      0  02:27       0.000     0.000
  YS02001649              0.01     31.25      0  02:40       0.000     0.000
  YS02001625              1.20    236.13      0  03:01       0.464     0.000
  YS02001790              0.01    153.84      0  02:36       0.000     0.000
  JK-storage              0.79    964.97      0  02:49       1.210     0.000
  XR-storage              3.10    464.72      0  03:01       1.933     0.000
  
  
  **********************
  Storage Volume Summary
  **********************
  
  --------------------------------------------------------------------------------------------------
                         Average     Avg  Evap Exfil       Maximum     Max    Time of Max    Maximum
                          Volume    Pcnt  Pcnt  Pcnt        Volume    Pcnt     Occurrence    Outflow
  Storage Unit           1000 m3    Full  Loss  Loss       1000 m3    Full    days hr:min        LPS
  --------------------------------------------------------------------------------------------------
  JK-storage               0.121      41     0     0         0.291     100       0  02:01     983.00
  CC-storage               3.191      20     0     0         4.000      25       0  03:07     399.96
  XR-storage               0.773      83     0     0         0.926     100       0  02:52     380.00
  
  
  ***********************
  Outfall Loading Summary
  ***********************
  
  ---------------------------------------------------------------------------------------------------------------------------------
                         Flow       Avg       Max       Total         Total         Total         Total         Total         Total
                         Freq      Flow      Flow      Volume           COD            SS            TN            TP         NH4-N
  Outfall Node           Pcnt       LPS       LPS    10^6 ltr            kg            kg            kg            kg            kg
  ---------------------------------------------------------------------------------------------------------------------------------
  WSC                  100.00    701.95   1073.57      18.205      2178.221      3707.706       147.815        17.572        89.912
  ---------------------------------------------------------------------------------------------------------------------------------
  System               100.00    701.95   1073.57      18.205      2178.221      3707.706       147.815        17.572        89.912
  
  
  ********************
  Link Flow Summary
  ********************
  
  -----------------------------------------------------------------------------
                                 Maximum  Time of Max   Maximum    Max/    Max/
                                  |Flow|   Occurrence   |Veloc|    Full    Full
  Link                 Type          LPS  days hr:min     m/sec    Flow   Depth
  -----------------------------------------------------------------------------
  WS02003066WSF200     CONDUIT    673.95     0  03:08      2.85    0.11    0.26
  WS02006287WS02006284 CONDUIT    413.47     0  03:02      2.04    0.19    0.30
  WS02006284WS02006280 CONDUIT    413.62     0  03:02      2.28    0.17    0.28
  WS02006280WS02006229 CONDUIT    413.67     0  03:02      3.68    0.09    0.20
  WS02006229WS02006228 CONDUIT    672.75     0  03:03      1.34    2.23    1.00
  WS02006256WS02006235 CONDUIT    262.40     0  04:52      3.71    2.78    1.00
  WS02006253WS02006251 CONDUIT     81.99     0  03:01      0.62    0.25    1.00
  WS02006252WS02006251 CONDUIT    400.44     0  07:09      3.19    1.47    1.00
  WS02006251WS02006249 CONDUIT    426.12     0  07:09      1.11    1.23    1.00
  WS02006249WS02006248 CONDUIT    369.90     0  07:31      1.14    2.03    1.00
  WS02006248WS02006247 CONDUIT    368.99     0  07:31      1.08    0.80    1.00
  WS02006247WS02006245 CONDUIT    367.85     0  07:31      1.01    2.92    1.00
  WS02006245WS02006243 CONDUIT    367.08     0  07:31      1.04    1.09    1.00
  WS02006243WS02006242 CONDUIT    364.62     0  07:31      0.97    0.78    1.00
  WS02006242WS02006240 CONDUIT    361.68     0  07:31      0.96    1.44    1.00
  WS02006240WS02006239 CONDUIT    360.01     0  07:32      0.98    1.13    1.00
  WS02006239WS02006238 CONDUIT    359.50     0  07:32      0.95    1.15    1.00
  WS02006238WS02006235 CONDUIT    359.28     0  07:32      0.95    0.80    1.00
  WS02006235WS02006234 CONDUIT    522.91     0  07:11      1.36    5.52    1.00
  WS02006234WS02006232 CONDUIT    522.73     0  07:10      1.36    1.06    1.00
  WS02006232WS02006231 CONDUIT    522.69     0  07:11      1.36    1.10    1.00
  WS02006231WS02006230 CONDUIT    522.68     0  07:11      1.40    7.93    1.00
  WS02006230WS02006229 CONDUIT    534.96     0  07:10      1.39   11.91    1.00
  WS02006228WS02006109 CONDUIT    672.49     0  03:03      1.34    2.94    1.00
  WS02006116WS02004401 CONDUIT    677.85     0  03:05      0.87    0.93    0.99
  WS02006115WS02006116 CONDUIT    682.55     0  03:05      1.03    0.88    0.92
  WS02006113WS02006111 CONDUIT    707.56     0  03:04      2.59    0.85    0.56
  WS02006112WS02006115 CONDUIT    685.32     0  03:05      0.89    0.40    0.95
  WS02006111WS02006112 CONDUIT    675.10     0  03:05      1.71    0.32    0.74
  WS02006110WS02006113 CONDUIT    675.26     0  03:03      1.53    0.61    0.82
  WS02006109WS02006110 CONDUIT    673.62     0  03:03      1.34    1.30    1.00
  WS02004411WS02004412 CONDUIT    673.92     0  03:07      1.04    0.96    0.77
  WS02004401WS02004402 CONDUIT    677.23     0  03:06      0.88    0.81    1.00
  WS02004413WS02003067 CONDUIT    673.68     0  03:08      1.26    0.29    0.64
  WS02004412WS02004413 CONDUIT    673.81     0  03:08      0.95    0.45    0.84
  WS02004410WS02004411 CONDUIT    674.72     0  03:06      1.04    0.92    0.77
  WS02004409WS02004410 CONDUIT    676.00     0  03:06      1.05    0.87    0.76
  WS02004407WS02004409 CONDUIT    677.89     0  03:06      1.55    0.24    0.55
  WS02004406WS02004407 CONDUIT    678.58     0  03:05      1.22    0.30    0.67
  WS02004405WS02004406 CONDUIT    677.89     0  03:05      0.86    1.34    1.00
  WS02004404WS02004405 CONDUIT    677.52     0  03:05      1.02    6.64    1.00
  WS02004403WS02004404 CONDUIT    677.16     0  03:06      0.93    0.49    1.00
  WS02004402WS02004403 CONDUIT    676.82     0  03:05      0.96    0.97    1.00
  WS02004139WS02001211 CONDUIT    382.29     0  04:40      0.90    0.48    0.61
  WS02004138WS02004139 CONDUIT    394.13     0  00:00      3.62    0.08    0.45
  WS02003067WS02003066 CONDUIT    673.79     0  03:07      1.37    0.22    0.45
  WS02001213WS02003059 CONDUIT    397.85     0  04:40      0.89    0.66    0.81
  WS02001212WS02001213 CONDUIT    394.18     0  04:40      1.32    0.61    0.50
  WS02001211WS02001212 CONDUIT    391.93     0  04:40      0.78    0.30    0.67
  WS02003072WS02003073 CONDUIT   1071.60     0  03:11      1.81    2.31    0.52
  WS02003069WS02003072 CONDUIT   1071.60     0  03:10      1.69    0.52    0.55
  WS02003060WS02003069 CONDUIT   1071.55     0  03:10      1.93    0.42    0.49
  WS02003059WS02003060 CONDUIT    403.03     0  04:39      0.95    0.26    0.70
  HS02004901HS02004770 CONDUIT     20.53     0  03:01      0.07    0.08    0.42
  HS02004876HS02004881 CONDUIT     76.55     0  03:01      0.95    0.81    0.12
  HS02004870HS02004876 CONDUIT     61.90     0  03:01      0.65    0.04    0.14
  HS02004842HS02004848 CONDUIT     12.41     0  03:01      0.06    0.01    0.31
  HS02004837HS02004842 CONDUIT     12.98     0  03:02      0.42    0.01    0.32
  HS02004830HS02004837 CONDUIT     43.71     0  03:01      0.57    0.04    0.11
  HS02004824HS02004830 CONDUIT     43.67     0  03:01      0.59    0.06    0.11
  HS02004817HS02004824 CONDUIT     85.69     0  03:01      0.26    0.04    0.48
  HS02004770HS02004777 CONDUIT    104.13     0  03:01      0.35    0.19    0.43
  HS02004799HS02004480 CONDUIT    258.30     0  03:01      0.83    0.33    0.44
  HS02004792HS02004799 CONDUIT    237.04     0  03:01      0.95    0.15    0.36
  HS02004788HS02004792 CONDUIT    135.43     0  03:01      1.06    0.09    0.18
  HS02004785HS02004788 CONDUIT    103.22     0  03:02      0.71    0.78    0.21
  HS02004777HS02004785 CONDUIT    103.37     0  03:01      0.42    0.13    0.35
  HS02004480HS02004478 CONDUIT    302.29     0  03:01      1.26    1.27    0.34
  HS02004479HS02004480 CONDUIT     46.29     0  03:02      0.32    0.04    0.43
  HS02004862HS02004870 CONDUIT     47.43     0  03:01      0.66    0.05    0.10
  HS02004848HS02004852 CONDUIT     21.94     0  03:01      0.45    0.02    0.07
  HS02004856HS02004862 CONDUIT     32.47     0  03:01      0.48    0.03    0.10
  HS02004852HS02004856 CONDUIT     21.85     0  03:02      0.25    0.02    0.13
  HS02004802HS02004478 CONDUIT    111.52     0  03:02      0.45    0.10    0.36
  HS02004478WS02006287 CONDUIT    413.23     0  03:01      1.75    0.12    0.26
  HS02004817HS02004807 CONDUIT     86.14     0  03:01      0.19    0.05    0.63
  HS02004807HS02004802 CONDUIT    111.37     0  03:01      0.38    0.21    0.42
  YS02001759YS02001757 CONDUIT    572.20     0  02:39      0.73    0.41    1.00
  YS02001762YS02001759 CONDUIT    291.54     0  02:38      0.37    0.34    1.00
  YS02001765YS02001762 CONDUIT    291.63     0  02:38      0.37    0.27    1.00
  YS02001770YS02001767 CONDUIT    290.26     0  02:38      0.37    1.15    1.00
  YS02001774YS02001770 CONDUIT    622.58     0  03:08      0.79    0.40    1.00
  YS02001779YS02001774 CONDUIT    622.87     0  03:08      0.79    0.31    1.00
  YS02001649YS02001757 CONDUIT    829.12     0  02:35      1.06    0.50    1.00
  YS02001767YS02001765 CONDUIT    291.41     0  02:38      0.37    0.37    1.00
  YS02006561YS02001783 CONDUIT    980.94     0  03:13      2.15    0.51    1.00
  YS02001783YS02001784 CONDUIT    981.13     0  03:12      1.95    1.35    1.00
  YS02001784YS02001785 CONDUIT    982.01     0  03:17      1.95    2.29    1.00
  YS02001788YS02001790 CONDUIT    982.24     0  03:13      2.43    0.72    1.00
  YS02001790YS02001791 CONDUIT    982.69     0  03:13      2.91    1.07    1.00
  YS02001791YS02001793 CONDUIT    983.24     0  03:12      5.84    0.42    1.00
  YS02001910YS02001907 CONDUIT    455.49     0  03:00      0.58    0.26    1.00
  YS02001786YS02001788 CONDUIT    982.16     0  03:11      2.31    1.89    1.00
  YS02001915YS02001910 CONDUIT    455.78     0  03:00      0.59    0.23    1.00
  YS02001918YS02001915 CONDUIT    242.87     0  03:30      0.44    0.13    1.00
  YS02001923YS02001920 CONDUIT    211.78     0  02:47      0.71    0.10    1.00
  YS02001926YS02001923 CONDUIT    240.54     0  02:47      0.83    0.34    0.89
  YS02001929YS02001926 CONDUIT    198.46     0  02:47      0.88    0.09    0.79
  YS02001920YS02001918 CONDUIT    215.32     0  02:47      0.70    0.21    1.00
  YS02001629YS02163301 CONDUIT    201.49     0  02:24      0.26    0.25    1.00
  YS02001619YS02001622 CONDUIT    291.08     0  03:01      0.61    0.43    1.00
  YS02001622YS02001625 CONDUIT    290.79     0  03:01      0.37    0.16    1.00
  YS02001625YS02001629 CONDUIT    201.73     0  02:17      0.26    0.10    1.00
  YS02163301YS02001633 CONDUIT    205.08     0  02:28      0.26    0.19    1.00
  YS02163601YS02164001 CONDUIT    397.35     0  02:35      0.51    0.35    1.00
  YS02164001YS02001641 CONDUIT    400.99     0  02:28      0.51    0.55    1.00
  YS02001641YS02001644 CONDUIT    404.94     0  02:28      0.52    1.31    1.00
  YS02001647YS02001649 CONDUIT    735.04     0  03:09      0.94    0.39    1.00
  YS02006553YS02006556 CONDUIT    705.05     0  03:32      0.90    0.60    1.00
  YS02006556YS02006558 CONDUIT    705.44     0  03:32      0.90    0.56    1.00
  YSB6556YSB1171       CONDUIT     25.75     0  03:03      0.09    0.03    0.70
  YS02001907YS02006553 CONDUIT    705.19     0  03:32      0.78    0.83    1.00
  YS02006558YS02006561 CONDUIT    981.02     0  03:12      3.47    2.17    1.00
  YS02001633YS02163601 CONDUIT    396.97     0  02:35      0.51    0.42    1.00
  YS02001644YS02001647 CONDUIT    735.51     0  03:09      0.94    0.43    1.00
  YS02001745YS02001748 CONDUIT    534.91     0  02:27      1.47    0.21    0.96
  YS02001748YS02001751 CONDUIT    345.90     0  02:17      1.06    0.17    1.00
  YS02001751YS02001754 CONDUIT    341.09     0  03:01      0.92    0.16    1.00
  YS02001754YS02001757 CONDUIT    341.50     0  03:01      0.43    0.14    1.00
  YS02001882YS02001884 CONDUIT     36.03     0  02:39      0.13    0.04    1.00
  YS02001884YS02001887 CONDUIT     70.78     0  02:38      0.09    0.09    1.00
  YS02001890YS02001895 CONDUIT    495.31     0  03:01      0.63    0.23    1.00
  YS02001895YS02001898 CONDUIT    495.76     0  03:01      0.63    0.86    1.00
  YS02001898YS02001901 CONDUIT    495.80     0  03:01      0.63    0.32    1.00
  YS02001901YS02001904 CONDUIT    495.96     0  03:01      0.63    0.77    1.00
  YS02001904YS02001907 CONDUIT    495.88     0  03:01      0.63    0.17    1.00
  YS02001887YS02001890 CONDUIT    494.92     0  03:01      0.63    0.85    1.00
  YS02001652YS02001649 CONDUIT    374.32     0  03:01      0.63    0.19    1.00
  YS02001655YS02001652 CONDUIT    373.09     0  03:01      0.98    0.18    1.00
  YS02001658YS02001655 CONDUIT    374.89     0  02:18      1.22    0.16    1.00
  YS02001661YS02001658 CONDUIT    598.05     0  02:23      1.55    0.23    1.00
  YS02001664YS02001661 CONDUIT    629.32     0  02:39      1.43    0.20    0.77
  YSB1154YSB6556       CONDUIT     25.83     0  03:01      0.17    0.05    0.59
  YSB1174YSB1171       CONDUIT     20.14     0  03:01      0.07    0.03    0.70
  YSB1171HS02004479    CONDUIT     44.91     0  03:02      0.54    0.03    0.55
  HS02004881HS02006253 CONDUIT     84.17     0  03:01      2.24    0.02    0.50
  YS02001793JiankangQianchi CONDUIT    982.85     0  03:12     16.77    0.08    1.00
  YS02001757CaochengTiaoxuchi CONDUIT   1580.86     0  02:35      2.03    0.69    1.00
  WSF200WS02003060     CONDUIT    674.50     0  03:08      1.72    0.15    0.38
  1                    CONDUIT   1073.57     0  03:11      3.39    0.37    0.42
  CC-Pump-1            PUMP       200.00     0  04:10              1.00
  CC-Pump-2            PUMP       199.98     0  07:30              1.00
  JK-Pump-1            PUMP       300.00     0  02:10              1.00
  JK-Pump-2            PUMP       683.00     0  02:10              1.00
  XR-Pump-1            PUMP        95.00     0  00:00              1.00
  XR-Pump-2            PUMP        95.00     0  00:00              1.00
  XR-Pump-3            PUMP        95.00     0  00:00              1.00
  XR-Pump-4            PUMP        95.00     0  00:00              1.00
  
  
  ***************************
  Flow Classification Summary
  ***************************
  
  -------------------------------------------------------------------------------------
                      Adjusted    ---------- Fraction of Time in Flow Class ---------- 
                       /Actual         Up    Down  Sub   Sup   Up    Down  Norm  Inlet 
  Conduit               Length    Dry  Dry   Dry   Crit  Crit  Crit  Crit  Ltd   Ctrl  
  -------------------------------------------------------------------------------------
  WS02003066WSF200        1.00   0.01  0.04  0.00  0.00  0.95  0.00  0.00  0.64  0.00
  WS02006287WS02006284    1.00   0.03  0.02  0.00  0.67  0.29  0.00  0.00  0.62  0.00
  WS02006284WS02006280    1.00   0.04  0.00  0.00  0.00  0.00  0.00  0.96  0.00  0.00
  WS02006280WS02006229    1.00   0.04  0.00  0.00  0.00  0.00  0.00  0.96  0.00  0.00
  WS02006229WS02006228    1.00   0.00  0.00  0.00  1.00  0.00  0.00  0.00  0.00  0.00
  WS02006256WS02006235    1.00   0.02  0.00  0.00  0.98  0.00  0.00  0.00  0.00  0.00
  WS02006253WS02006251    1.00   0.01  0.02  0.00  0.96  0.00  0.01  0.00  0.00  0.00
  WS02006252WS02006251    1.00   0.33  0.00  0.00  0.01  0.00  0.66  0.00  0.00  0.00
  WS02006251WS02006249    1.00   0.00  0.00  0.00  1.00  0.00  0.00  0.00  0.33  0.00
  WS02006249WS02006248    1.00   0.00  0.00  0.00  0.86  0.00  0.13  0.00  0.00  0.00
  WS02006248WS02006247    1.00   0.01  0.00  0.00  0.98  0.00  0.00  0.01  0.18  0.00
  WS02006247WS02006245    1.00   0.01  0.00  0.00  0.96  0.00  0.00  0.03  0.00  0.00
  WS02006245WS02006243    1.00   0.01  0.00  0.00  0.93  0.00  0.00  0.06  0.01  0.00
  WS02006243WS02006242    1.00   0.01  0.00  0.00  0.97  0.00  0.00  0.02  0.19  0.00
  WS02006242WS02006240    1.00   0.01  0.01  0.00  0.98  0.00  0.00  0.00  0.00  0.00
  WS02006240WS02006239    1.00   0.02  0.00  0.00  0.95  0.00  0.00  0.02  0.01  0.00
  WS02006239WS02006238    1.00   0.02  0.00  0.00  0.98  0.00  0.00  0.00  0.03  0.00
  WS02006238WS02006235    1.00   0.02  0.00  0.00  0.98  0.00  0.00  0.00  0.00  0.00
  WS02006235WS02006234    1.00   0.02  0.00  0.00  0.96  0.00  0.02  0.00  0.00  0.00
  WS02006234WS02006232    1.00   0.02  0.00  0.00  0.98  0.00  0.00  0.00  0.01  0.00
  WS02006232WS02006231    1.00   0.02  0.00  0.00  0.97  0.00  0.00  0.00  0.00  0.00
  WS02006231WS02006230    1.00   0.02  0.00  0.00  0.61  0.00  0.37  0.00  0.00  0.00
  WS02006230WS02006229    1.00   0.00  0.00  0.00  0.99  0.00  0.00  0.01  0.00  0.00
  WS02006228WS02006109    1.00   0.00  0.00  0.00  1.00  0.00  0.00  0.00  0.00  0.00
  WS02006116WS02004401    1.00   0.03  0.00  0.00  0.97  0.00  0.00  0.00  0.00  0.00
  WS02006115WS02006116    1.00   0.03  0.00  0.00  0.97  0.00  0.00  0.00  0.00  0.00
  WS02006113WS02006111    1.00   0.02  0.00  0.00  0.01  0.97  0.00  0.00  0.22  0.00
  WS02006112WS02006115    1.00   0.02  0.01  0.00  0.97  0.00  0.00  0.00  0.00  0.00
  WS02006111WS02006112    1.00   0.02  0.00  0.00  0.98  0.00  0.00  0.00  0.89  0.00
  WS02006110WS02006113    1.00   0.00  0.01  0.00  0.98  0.00  0.00  0.00  0.00  0.00
  WS02006109WS02006110    1.00   0.00  0.00  0.00  0.99  0.00  0.00  0.00  0.00  0.00
  WS02004411WS02004412    1.00   0.04  0.00  0.00  0.96  0.00  0.00  0.00  0.00  0.00
  WS02004401WS02004402    1.00   0.03  0.00  0.00  0.97  0.00  0.00  0.00  0.00  0.00
  WS02004413WS02003067    1.00   0.04  0.00  0.00  0.00  0.00  0.96  0.00  0.00  0.00
  WS02004412WS02004413    1.00   0.04  0.00  0.00  0.96  0.00  0.00  0.00  0.00  0.00
  WS02004410WS02004411    1.00   0.04  0.00  0.00  0.96  0.00  0.00  0.00  0.00  0.00
  WS02004409WS02004410    1.00   0.04  0.00  0.00  0.96  0.00  0.00  0.00  0.00  0.00
  WS02004407WS02004409    1.00   0.04  0.00  0.00  0.96  0.00  0.00  0.00  0.87  0.00
  WS02004406WS02004407    1.00   0.00  0.04  0.00  0.96  0.00  0.00  0.00  0.00  0.00
  WS02004405WS02004406    1.00   0.00  0.00  0.00  1.00  0.00  0.00  0.00  0.04  0.00
  WS02004404WS02004405    1.00   0.00  0.00  0.00  1.00  0.00  0.00  0.00  0.01  0.00
  WS02004403WS02004404    1.00   0.00  0.03  0.00  0.97  0.00  0.00  0.00  0.00  0.00
  WS02004402WS02004403    1.00   0.03  0.00  0.00  0.97  0.00  0.00  0.00  0.00  0.00
  WS02004139WS02001211    1.00   0.00  0.00  0.00  1.00  0.00  0.00  0.00  0.00  0.00
  WS02004138WS02004139    1.00   0.00  0.00  0.00  1.00  0.00  0.00  0.00  1.00  0.00
  WS02003067WS02003066    1.00   0.04  0.00  0.00  0.95  0.00  0.00  0.00  0.00  0.00
  WS02001213WS02003059    1.00   0.00  0.00  0.00  1.00  0.00  0.00  0.00  0.00  0.00
  WS02001212WS02001213    1.00   0.00  0.00  0.00  0.91  0.00  0.09  0.00  0.00  0.00
  WS02001211WS02001212    1.00   0.00  0.00  0.00  1.00  0.00  0.00  0.00  0.00  0.00
  WS02003072WS02003073    1.00   0.00  0.00  0.00  0.00  0.00  0.00  1.00  0.00  0.00
  WS02003069WS02003072    1.00   0.00  0.00  0.00  1.00  0.00  0.00  0.00  0.11  0.00
  WS02003060WS02003069    1.00   0.00  0.00  0.00  0.99  0.01  0.00  0.00  0.08  0.00
  WS02003059WS02003060    1.00   0.00  0.00  0.00  1.00  0.00  0.00  0.00  0.00  0.00
  HS02004901HS02004770    1.00   0.04  0.00  0.00  0.96  0.00  0.00  0.00  0.00  0.00
  HS02004876HS02004881    1.00   0.01  0.00  0.00  0.93  0.07  0.00  0.00  0.00  0.00
  HS02004870HS02004876    1.00   0.00  0.00  0.00  1.00  0.00  0.00  0.00  0.95  0.00
  HS02004842HS02004848    1.00   0.00  0.04  0.00  0.96  0.00  0.00  0.00  0.55  0.00
  HS02004837HS02004842    1.00   0.00  0.00  0.00  1.00  0.00  0.00  0.00  0.11  0.00
  HS02004830HS02004837    1.00   0.00  0.00  0.00  1.00  0.00  0.00  0.00  0.99  0.00
  HS02004824HS02004830    1.00   0.00  0.00  0.00  1.00  0.00  0.00  0.00  0.00  0.00
  HS02004817HS02004824    1.00   0.00  0.00  0.00  1.00  0.00  0.00  0.00  1.00  0.00
  HS02004770HS02004777    1.00   0.00  0.04  0.00  0.96  0.00  0.00  0.00  0.02  0.00
  HS02004799HS02004480    1.00   0.00  0.01  0.00  0.95  0.00  0.04  0.00  0.00  0.00
  HS02004792HS02004799    1.00   0.00  0.00  0.00  1.00  0.00  0.00  0.00  0.98  0.00
  HS02004788HS02004792    1.00   0.00  0.00  0.00  1.00  0.00  0.00  0.00  0.98  0.00
  HS02004785HS02004788    1.00   0.00  0.00  0.00  1.00  0.00  0.00  0.00  0.00  0.00
  HS02004777HS02004785    1.00   0.00  0.00  0.00  1.00  0.00  0.00  0.00  0.12  0.00
  HS02004480HS02004478    1.00   0.04  0.00  0.00  0.71  0.00  0.00  0.25  0.00  0.00
  HS02004479HS02004480    1.00   0.01  0.00  0.00  0.99  0.00  0.00  0.00  0.11  0.00
  HS02004862HS02004870    1.00   0.00  0.00  0.00  1.00  0.00  0.00  0.00  0.03  0.00
  HS02004848HS02004852    1.00   0.04  0.00  0.00  0.96  0.00  0.00  0.00  0.62  0.00
  HS02004856HS02004862    1.00   0.00  0.05  0.00  0.95  0.00  0.00  0.00  0.83  0.00
  HS02004852HS02004856    1.00   0.04  0.00  0.00  0.96  0.00  0.00  0.00  0.85  0.00
  HS02004802HS02004478    1.00   0.04  0.00  0.00  0.96  0.00  0.00  0.00  0.02  0.00
  HS02004478WS02006287    1.00   0.05  0.00  0.00  0.76  0.19  0.00  0.00  0.64  0.00
  HS02004817HS02004807    1.00   0.00  0.04  0.00  0.96  0.00  0.00  0.00  0.01  0.00
  HS02004807HS02004802    1.00   0.04  0.00  0.00  0.95  0.00  0.00  0.01  0.00  0.00
  YS02001759YS02001757    1.00   0.00  0.00  0.00  1.00  0.00  0.00  0.00  0.16  0.00
  YS02001762YS02001759    1.00   0.00  0.00  0.00  1.00  0.00  0.00  0.00  0.03  0.00
  YS02001765YS02001762    1.00   0.00  0.00  0.00  1.00  0.00  0.00  0.00  0.13  0.00
  YS02001770YS02001767    1.00   0.00  0.00  0.00  1.00  0.00  0.00  0.00  0.00  0.00
  YS02001774YS02001770    1.00   0.00  0.04  0.00  0.96  0.00  0.00  0.00  0.02  0.00
  YS02001779YS02001774    1.00   0.00  0.00  0.00  1.00  0.00  0.00  0.00  0.18  0.00
  YS02001649YS02001757    1.00   0.00  0.00  0.00  1.00  0.00  0.00  0.00  0.16  0.00
  YS02001767YS02001765    1.00   0.00  0.00  0.00  1.00  0.00  0.00  0.00  0.00  0.00
  YS02006561YS02001783    1.00   0.06  0.00  0.00  0.26  0.69  0.00  0.00  0.48  0.00
  YS02001783YS02001784    1.00   0.00  0.06  0.00  0.94  0.00  0.00  0.00  0.00  0.00
  YS02001784YS02001785    1.00   0.00  0.00  0.00  1.00  0.00  0.00  0.00  0.17  0.00
  YS02001788YS02001790    1.00   0.00  0.00  0.00  0.32  0.68  0.00  0.00  0.39  0.00
  YS02001790YS02001791    1.00   0.00  0.00  0.00  0.27  0.73  0.00  0.00  0.49  0.00
  YS02001791YS02001793    1.00   0.00  0.00  0.00  0.30  0.70  0.00  0.00  0.03  0.00
  YS02001910YS02001907    1.00   0.00  0.00  0.00  0.99  0.00  0.00  0.01  0.12  0.00
  YS02001786YS02001788    1.00   0.00  0.00  0.00  0.29  0.71  0.00  0.00  0.00  0.00
  YS02001915YS02001910    1.00   0.00  0.00  0.00  0.99  0.01  0.00  0.00  0.15  0.00
  YS02001918YS02001915    1.00   0.00  0.00  0.00  0.99  0.00  0.00  0.00  0.55  0.00
  YS02001923YS02001920    1.00   0.00  0.00  0.00  1.00  0.00  0.00  0.00  0.84  0.00
  YS02001926YS02001923    1.00   0.00  0.02  0.00  0.10  0.00  0.88  0.00  0.00  0.00
  YS02001929YS02001926    1.00   0.00  0.04  0.00  0.96  0.00  0.00  0.00  0.77  0.00
  YS02001920YS02001918    1.00   0.00  0.00  0.00  1.00  0.00  0.00  0.00  0.00  0.00
  YS02001629YS02163301    1.00   0.05  0.00  0.00  0.95  0.00  0.00  0.00  0.00  0.00
  YS02001619YS02001622    1.00   0.04  0.00  0.00  0.96  0.00  0.00  0.00  0.00  0.00
  YS02001622YS02001625    1.00   0.04  0.00  0.00  0.96  0.00  0.00  0.00  0.04  0.00
  YS02001625YS02001629    1.00   0.04  0.02  0.00  0.93  0.00  0.02  0.00  0.00  0.00
  YS02163301YS02001633    1.00   0.00  0.05  0.00  0.95  0.00  0.00  0.00  0.00  0.00
  YS02163601YS02164001    1.00   0.00  0.02  0.00  0.98  0.00  0.00  0.00  0.00  0.00
  YS02164001YS02001641    1.00   0.00  0.02  0.00  0.98  0.00  0.00  0.00  0.06  0.00
  YS02001641YS02001644    1.00   0.00  0.00  0.00  1.00  0.00  0.00  0.00  0.00  0.00
  YS02001647YS02001649    1.00   0.00  0.05  0.00  0.95  0.00  0.00  0.00  0.01  0.00
  YS02006553YS02006556    1.00   0.00  0.00  0.00  1.00  0.00  0.00  0.00  0.03  0.00
  YS02006556YS02006558    1.00   0.00  0.00  0.00  1.00  0.00  0.00  0.00  0.00  0.00
  YSB6556YSB1171          1.00   0.01  0.03  0.00  0.96  0.00  0.00  0.00  0.00  0.00
  YS02001907YS02006553    1.00   0.00  0.01  0.00  0.99  0.00  0.00  0.00  0.00  0.00
  YS02006558YS02006561    1.00   0.06  0.00  0.00  0.10  0.84  0.00  0.00  0.50  0.00
  YS02001633YS02163601    1.00   0.00  0.00  0.00  1.00  0.00  0.00  0.00  0.15  0.00
  YS02001644YS02001647    1.00   0.00  0.05  0.00  0.95  0.00  0.00  0.00  0.00  0.00
  YS02001745YS02001748    1.00   0.00  0.00  0.00  0.90  0.01  0.00  0.09  0.04  0.00
  YS02001748YS02001751    1.00   0.00  0.00  0.00  0.97  0.03  0.00  0.00  0.15  0.00
  YS02001751YS02001754    1.00   0.00  0.00  0.00  0.94  0.00  0.00  0.06  0.02  0.00
  YS02001754YS02001757    1.00   0.00  0.00  0.00  1.00  0.00  0.00  0.00  0.18  0.00
  YS02001882YS02001884    1.00   0.05  0.00  0.00  0.95  0.00  0.00  0.00  0.00  0.00
  YS02001884YS02001887    1.00   0.02  0.02  0.00  0.97  0.00  0.00  0.00  0.00  0.00
  YS02001890YS02001895    1.00   0.00  0.05  0.00  0.95  0.00  0.00  0.00  0.00  0.00
  YS02001895YS02001898    1.00   0.05  0.00  0.00  0.94  0.00  0.01  0.00  0.00  0.00
  YS02001898YS02001901    1.00   0.05  0.00  0.00  0.95  0.00  0.00  0.00  0.01  0.00
  YS02001901YS02001904    1.00   0.05  0.00  0.00  0.95  0.00  0.00  0.00  0.00  0.00
  YS02001904YS02001907    1.00   0.00  0.05  0.00  0.95  0.00  0.00  0.00  0.00  0.00
  YS02001887YS02001890    1.00   0.00  0.00  0.00  0.99  0.00  0.01  0.00  0.00  0.00
  YS02001652YS02001649    1.00   0.00  0.00  0.00  1.00  0.00  0.00  0.00  0.16  0.00
  YS02001655YS02001652    1.00   0.00  0.00  0.00  0.94  0.00  0.00  0.06  0.02  0.00
  YS02001658YS02001655    1.00   0.00  0.04  0.00  0.93  0.03  0.00  0.00  0.08  0.00
  YS02001661YS02001658    1.00   0.04  0.00  0.00  0.90  0.05  0.00  0.00  0.08  0.00
  YS02001664YS02001661    1.00   0.04  0.00  0.00  0.91  0.05  0.00  0.00  0.19  0.00
  YSB1154YSB6556          1.00   0.04  0.00  0.00  0.96  0.00  0.00  0.00  0.01  0.00
  YSB1174YSB1171          1.00   0.01  0.01  0.00  0.97  0.00  0.00  0.00  0.00  0.00
  YSB1171HS02004479       1.00   0.01  0.00  0.00  0.99  0.00  0.00  0.00  0.10  0.00
  HS02004881HS02006253    1.00   0.01  0.00  0.00  0.44  0.03  0.00  0.51  0.28  0.00
  YS02001793JiankangQianchi    1.00   0.00  0.00  0.00  0.66  0.34  0.00  0.00  0.45  0.00
  YS02001757CaochengTiaoxuchi    1.00   0.00  0.07  0.00  0.93  0.00  0.00  0.00  0.00  0.00
  WSF200WS02003060        1.00   0.00  0.01  0.00  0.97  0.02  0.00  0.00  0.54  0.00
  1                       1.00   0.00  0.00  0.00  0.00  1.00  0.00  0.00  0.47  0.00
  
  
  *************************
  Conduit Surcharge Summary
  *************************
  
  ----------------------------------------------------------------------------
                                                           Hours        Hours 
                         --------- Hours Full --------   Above Full   Capacity
  Conduit                Both Ends  Upstream  Dnstream   Normal Flow   Limited
  ----------------------------------------------------------------------------
  WS02006229WS02006228        2.44      2.53      2.44      4.04         2.44
  WS02006256WS02006235        5.58      5.58      6.99      4.36         0.01
  WS02006253WS02006251        0.27      0.27      0.30      0.01         0.01
  WS02006252WS02006251        0.28      0.28      0.70      0.58         0.01
  WS02006251WS02006249        0.28      0.28      0.32      0.16         0.04
  WS02006249WS02006248        0.29      0.29      0.32      1.38         0.01
  WS02006248WS02006247        0.31      0.31      0.40      0.01         0.01
  WS02006247WS02006245        0.39      0.41      0.39      1.95         0.39
  WS02006245WS02006243        0.41      0.41      0.45      0.08         0.03
  WS02006243WS02006242        0.48      0.48      0.81      0.01         0.01
  WS02006242WS02006240        0.76      0.76      1.06      0.52         0.01
  WS02006240WS02006239        0.80      0.80      0.97      0.23         0.09
  WS02006239WS02006238        1.30      1.30      1.66      0.26         0.11
  WS02006238WS02006235        1.65      1.65      1.86      0.01         0.01
  WS02006235WS02006234        1.14      1.14      1.55      5.46         0.01
  WS02006234WS02006232        1.39      1.39      2.19      0.18         0.18
  WS02006232WS02006231        0.59      0.59      2.19      0.23         0.01
  WS02006231WS02006230        0.36      0.36      0.70      5.69         0.01
  WS02006230WS02006229        3.20      3.67      3.20      6.12         3.20
  WS02006228WS02006109        2.48      2.85      2.48      4.83         2.48
  WS02006112WS02006115        0.01      0.01      1.33      0.01         0.01
  WS02006111WS02006112        0.01      0.01      4.26      0.01         0.01
  WS02006110WS02006113        0.01      0.01      2.67      0.01         0.01
[...]
  YS02001765YS02001762        5.84      5.84      5.87      0.01         0.01
  YS02001770YS02001767        5.81      5.81      5.81      0.37         0.66
  YS02001774YS02001770        5.80      5.80      5.86      0.01         0.01
  YS02001779YS02001774        5.67      5.67      5.86      0.01         0.01
  YS02001649YS02001757        5.87      5.87      5.98      0.01         0.01
  YS02001767YS02001765        5.81      5.81      5.84      0.01         0.01
  YS02006561YS02001783        0.76      0.76      1.01      0.01         0.01
  YS02001783YS02001784        0.99      1.01      0.99      1.40         0.99
  YS02001784YS02001785        0.94      0.99      0.94      2.39         0.93
  YS02001788YS02001790        0.88      0.88      1.65      0.01         0.01
  YS02001790YS02001791        1.65      1.65      1.76      0.87         0.85
  YS02001791YS02001793        1.76      1.76      2.18      0.01         0.01
  YS02001910YS02001907        1.06      1.06      1.77      0.01         0.01
  YS02001786YS02001788        0.88      0.94      0.88      2.02         0.88
  YS02001915YS02001910        0.88      0.88      1.06      0.01         0.01
  YS02001918YS02001915        0.71      0.71      0.88      0.01         0.01
  YS02001923YS02001920        0.53      0.53      0.74      0.01         0.01
  YS02001920YS02001918        0.71      0.71      0.74      0.01         0.01
  YS02001629YS02163301        5.80      5.80      5.81      0.01         0.01
  YS02001619YS02001622        5.47      5.47      5.50      0.01         0.01
  YS02001622YS02001625        5.50      5.50      5.76      0.01         0.01
  YS02001625YS02001629        5.47      5.47      5.76      0.01         0.01
  YS02163301YS02001633        5.81      5.81      5.84      0.01         0.01
  YS02163601YS02164001        5.84      5.84      5.87      0.01         0.01
  YS02164001YS02001641        5.84      5.84      5.85      0.01         0.03
  YS02001641YS02001644        5.85      5.85      5.85      1.52         1.88
  YS02001647YS02001649        5.75      5.75      5.87      0.01         0.01
  YS02006553YS02006556        1.31      1.31      1.85      0.01         0.01
  YS02006556YS02006558        1.54      1.54      1.93      0.01         0.01
  YS02001907YS02006553        2.41      2.41      2.66      0.01         0.01
  YS02006558YS02006561        0.90      1.27      0.90      2.23         0.90
  YS02001633YS02163601        5.83      5.83      5.87      0.01         0.01
  YS02001644YS02001647        5.75      5.75      5.85      0.01         0.01
  YS02001745YS02001748        0.01      0.01      5.30      0.01         0.01
  YS02001748YS02001751        5.36      5.36      5.47      0.01         0.01
  YS02001751YS02001754        5.47      5.47      5.69      0.01         0.01
  YS02001754YS02001757        5.74      5.74      5.98      0.01         0.01
  YS02001882YS02001884        0.89      0.89      0.92      0.01         0.01
  YS02001884YS02001887        0.96      0.96      0.98      0.01         0.01
  YS02001890YS02001895        0.87      0.87      1.09      0.01         0.01
  YS02001895YS02001898        0.86      0.86      0.87      0.01         0.01
  YS02001898YS02001901        0.88      0.88      0.95      0.01         0.01
  YS02001901YS02001904        0.93      0.93      0.95      0.01         0.01
  YS02001904YS02001907        0.93      0.93      1.88      0.01         0.01
  YS02001887YS02001890        1.01      1.01      1.04      0.01         0.01
  YS02001652YS02001649        5.76      5.76      5.87      0.01         0.01
  YS02001655YS02001652        5.50      5.50      5.73      0.01         0.01
  YS02001658YS02001655        5.33      5.33      5.50      0.01         0.01
  YS02001661YS02001658        0.10      0.10      5.33      0.01         0.01
  YS02001664YS02001661        0.01      0.01      1.05      0.01         0.01
  HS02004881HS02006253        0.01      0.01      0.11      0.01         0.01
  YS02001793JiankangQianchi        2.08      2.08      4.72      0.01         0.01
  YS02001757CaochengTiaoxuchi        5.21      5.21      5.98      0.01         0.01
  
  
  ***************
  Pumping Summary
  ***************
  
  ---------------------------------------------------------------------------------------------------------
                                                  Min       Avg       Max     Total     Power    % Time Off
                        Percent   Number of      Flow      Flow      Flow    Volume     Usage    Pump Curve
  Pump                 Utilized   Start-Ups       LPS       LPS       LPS  10^6 ltr     Kw-hr    Low   High
  ---------------------------------------------------------------------------------------------------------
  CC-Pump-1               38.27           4      0.00    140.33    200.00     1.380      1.10    0.0    0.0
  CC-Pump-2               17.00           4      0.00     97.06    199.98     0.480      0.52    0.0    0.0
  JK-Pump-1               59.57           5      0.00    218.62    300.00     3.671     58.22    0.0    0.0
  JK-Pump-2               51.06           4      0.00    391.02    683.00     5.897     87.41    0.0   95.5
  XR-Pump-1               97.87           2      0.00     93.68     95.00     2.565     24.77    0.0    0.0
  XR-Pump-2               97.87           2      0.00     92.92     95.00     2.508     23.51    0.0    0.0
  XR-Pump-3               93.61           3      0.00     92.97     95.00     2.394     20.99    0.0    0.0
  XR-Pump-4               93.61           3      0.00     92.97     95.00     2.394     20.99    0.0    0.0
  
  
  ***************************
  Link Pollutant Load Summary
  ***************************
  
  ------------------------------------------------------------------------------------------
                                 COD            SS            TN            TP         NH4-N
  Link                            kg            kg            kg            kg            kg
  ------------------------------------------------------------------------------------------
  WS02003066WSF200           646.919      1193.535        18.025         1.631         9.626
  WS02006287WS02006284       268.047       498.194         9.344         0.943         5.213
  WS02006284WS02006280       268.536       498.983         9.391         0.948         5.242
  WS02006280WS02006229       268.508       498.932         9.389         0.948         5.241
  WS02006229WS02006228       655.804      1209.663        17.804         1.585         9.447
  WS02006256WS02006235       202.041       370.519         4.427         0.342         2.234
  WS02006253WS02006251        52.275       100.540         1.174         0.089         0.584
  WS02006252WS02006251       153.034       275.416         3.256         0.238         1.607
  WS02006251WS02006249       197.096       361.244         4.269         0.316         2.115
  WS02006249WS02006248       194.777       357.044         4.218         0.312         2.089
  WS02006248WS02006247       194.766       357.051         4.222         0.313         2.092
  WS02006247WS02006245       194.248       356.121         4.213         0.312         2.088
  WS02006245WS02006243       193.438       354.719         4.194         0.311         2.079
  WS02006243WS02006242       193.097       354.124         4.194         0.311         2.080
  WS02006242WS02006240       193.547       355.046         4.189         0.310         2.075
  WS02006240WS02006239       195.686       359.053         4.236         0.314         2.099
  WS02006239WS02006238       198.583       364.143         4.313         0.320         2.139
  WS02006238WS02006235       200.151       366.758         4.356         0.324         2.163
  WS02006235WS02006234       391.406       717.904         8.522         0.645         4.263
  WS02006234WS02006232       390.677       716.614         8.508         0.644         4.256
  WS02006232WS02006231       389.795       715.027         8.488         0.643         4.246
  WS02006231WS02006230       388.945       713.511         8.470         0.642         4.237
  WS02006230WS02006229       388.229       712.343         8.449         0.640         4.226
  WS02006228WS02006109       654.538      1207.422        17.767         1.581         9.427
  WS02006116WS02004401       662.946      1221.996        18.447         1.667         9.848
  WS02006115WS02006116       664.651      1225.026        18.492         1.671         9.871
  WS02006113WS02006111       659.337      1214.547        18.450         1.670         9.862
  WS02006112WS02006115       666.184      1227.703        18.545         1.676         9.901
  WS02006111WS02006112       658.825      1213.656        18.437         1.669         9.856
  WS02006110WS02006113       660.071      1215.831        18.477         1.673         9.877
  WS02006109WS02006110       661.612      1218.473        18.546         1.680         9.918
  WS02004411WS02004412       650.637      1200.033        18.159         1.645         9.701
  WS02004401WS02004402       661.332      1219.159        18.396         1.662         9.820
  WS02004413WS02003067       647.657      1194.853        18.046         1.633         9.637
  WS02004412WS02004413       649.272      1197.634        18.115         1.640         9.677
  WS02004410WS02004411       651.861      1202.197        18.196         1.648         9.722
  WS02004409WS02004410       653.109      1204.393        18.235         1.652         9.743
  WS02004407WS02004409       654.263      1206.449        18.266         1.654         9.760
  WS02004406WS02004407       654.742      1207.328        18.274         1.655         9.763
  WS02004405WS02004406       656.973      1211.187        18.372         1.665         9.820
  WS02004404WS02004405       658.551      1214.065        18.386         1.665         9.824
  WS02004403WS02004404       658.371      1213.933        18.307         1.654         9.771
  WS02004402WS02004403       659.706      1216.280        18.350         1.658         9.795
  WS02004139WS02001211      1392.646      2294.579       115.773        14.177        71.495
  WS02004138WS02004139      1399.196      2305.396       116.302        14.242        71.821
  WS02003067WS02003066       647.144      1193.929        18.033         1.632         9.631
  WS02001213WS02003059      1425.534      2346.468       119.147        14.603        73.613
  WS02001212WS02001213      1434.739      2361.585       119.917        14.697        74.089
  WS02001211WS02001212      1436.857      2365.035       120.101        14.720        74.204
  WS02003072WS02003073      2172.374      3698.915       147.092        17.479        89.454
  WS02003069WS02003072      2177.409      3707.162       147.500        17.529        89.706
  WS02003060WS02003069      2180.113      3711.757       147.668        17.548        89.807
  WS02003059WS02003060      1422.344      2341.144       118.906        14.573        73.466
  HS02004901HS02004770        10.270        19.476         0.195         0.015         0.091
  HS02004876HS02004881        37.318        72.580         0.843         0.062         0.416
  HS02004870HS02004876        28.160        54.627         0.678         0.051         0.338
  HS02004842HS02004848         5.467        10.277         0.115         0.008         0.053
  HS02004837HS02004842        10.073        17.584         0.584         0.067         0.347
  HS02004830HS02004837        65.635       112.697         4.556         0.546         2.784
  HS02004824HS02004830        66.385       113.900         4.628         0.555         2.829
  HS02004817HS02004824        88.202       156.969         5.082         0.584         3.051
  HS02004770HS02004777        39.294        75.463         0.819         0.055         0.377
  HS02004799HS02004480       131.407       245.364         3.680         0.335         1.932
  HS02004792HS02004799       119.083       220.657         3.497         0.327         1.853
  HS02004788HS02004792        68.396       126.856         2.388         0.235         1.309
  HS02004785HS02004788        40.732        77.759         0.969         0.074         0.471
  HS02004777HS02004785        40.059        76.666         0.909         0.067         0.434
  HS02004480HS02004478       165.949       312.591         4.243         0.374         2.195
  HS02004479HS02004480        38.147        72.978         0.884         0.079         0.462
  HS02004862HS02004870        21.016        40.117         0.536         0.043         0.270
  HS02004848HS02004852         8.057        15.279         0.167         0.011         0.077
  HS02004856HS02004862        14.072        27.340         0.284         0.019         0.133
  HS02004852HS02004856         8.064        15.290         0.167         0.011         0.077
  HS02004802HS02004478       102.879       186.878         5.161         0.575         3.054
  HS02004478WS02006287       268.247       498.530         9.362         0.945         5.223
  HS02004817HS02004807        86.882       154.853         4.956         0.568         2.972
  HS02004807HS02004802       103.104       187.229         5.193         0.580         3.075
  YS02001759YS02001757       275.739       499.289         5.574         0.387         2.728
  YS02001762YS02001759       177.948       325.629         3.709         0.261         1.830
  YS02001765YS02001762       178.919       328.139         3.748         0.264         1.852
  YS02001770YS02001767       181.113       334.234         3.630         0.243         1.765
  YS02001774YS02001770       238.619       454.371         4.633         0.308         2.241
  YS02001779YS02001774       238.183       453.493         4.731         0.323         2.308
  YS02001649YS02001757       368.099       662.218         7.444         0.510         3.586
  YS02001767YS02001765       180.444       331.635         3.792         0.268         1.875
  YS02006561YS02001783       936.611      1717.581        19.855         1.491         9.911
  YS02001783YS02001784       936.543      1717.498        19.851         1.490         9.909
  YS02001784YS02001785       943.941      1729.376        20.565         1.580        10.355
  YS02001788YS02001790       944.592      1730.459        20.639         1.589        10.402
  YS02001790YS02001791       945.694      1732.267        20.741         1.602        10.466
  YS02001791YS02001793       945.711      1732.313        20.739         1.602        10.464
  YS02001910YS02001907       330.522       599.957         8.258         0.645         4.269
  YS02001786YS02001788       944.181      1729.790        20.594         1.584        10.374
  YS02001915YS02001910       330.553       599.987         8.213         0.639         4.239
  YS02001918YS02001915       160.669       279.362         4.693         0.437         2.556
  YS02001923YS02001920       137.950       241.992         2.694         0.191         1.314
  YS02001926YS02001923       136.876       240.206         2.618         0.181         1.268
  YS02001929YS02001926       136.179       239.049         2.555         0.174         1.228
  YS02001920YS02001918       158.530       275.098         4.625         0.431         2.519
  YS02001629YS02163301       103.563       183.515         2.172         0.140         1.012
  YS02001619YS02001622       146.394       262.932         3.031         0.197         1.414
  YS02001622YS02001625       145.252       261.131         3.003         0.195         1.401
  YS02001625YS02001629       104.656       185.321         2.196         0.142         1.023
  YS02163301YS02001633       103.298       183.069         2.165         0.140         1.010
  YS02163601YS02164001       362.111       646.348         7.117         0.503         3.404
  YS02164001YS02001641       361.637       645.554         7.098         0.501         3.393
  YS02001641YS02001644       361.884       645.902         7.097         0.500         3.392
  YS02001647YS02001649       434.761       788.439         8.719         0.600         4.177
  YS02006553YS02006556       657.830      1200.653        14.251         1.097         7.189
  YS02006556YS02006558       657.964      1200.899        14.223         1.093         7.170
  YSB6556YSB1171              21.954        42.201         0.451         0.038         0.229
  YS02001907YS02006553       657.853      1200.710        14.263         1.099         7.198
  YS02006558YS02006561       936.609      1717.565        19.854         1.491         9.910
  YS02001633YS02163601       362.795       647.402         7.097         0.499         3.388
  YS02001644YS02001647       440.430       798.735         8.808         0.606         4.217
  YS02001745YS02001748       209.640       385.747         4.695         0.326         2.340
  YS02001748YS02001751       208.153       382.841         4.767         0.339         2.394
  YS02001751YS02001754       207.194       381.276         4.749         0.338         2.386
  YS02001754YS02001757       207.980       382.466         4.914         0.360         2.493
  YS02001882YS02001884         2.432         4.183         0.049         0.004         0.025
  YS02001884YS02001887         7.044        12.491         0.137         0.011         0.068
  YS02001890YS02001895       389.717       721.121         7.194         0.540         3.510
  YS02001895YS02001898       389.600       720.992         7.188         0.539         3.507
  YS02001898YS02001901       389.473       720.790         7.185         0.539         3.506
  YS02001901YS02001904       389.402       720.727         7.193         0.540         3.511
  YS02001904YS02001907       389.730       721.269         7.249         0.547         3.547
  YS02001887YS02001890       390.442       722.173         7.247         0.546         3.543
  YS02001652YS02001649       163.380       298.386         3.334         0.239         1.562
  YS02001655YS02001652       163.820       299.110         3.346         0.240         1.568
  YS02001658YS02001655       163.143       298.041         3.255         0.228         1.509
  YS02001661YS02001658       167.163       305.283         3.335         0.234         1.547
  YS02001664YS02001661       180.574       326.913         3.644         0.255         1.687
  YSB1154YSB6556              21.534        41.532         0.402         0.032         0.198
  YSB1174YSB1171              14.654        28.291         0.298         0.024         0.149
  YSB1171HS02004479           38.105        72.911         0.887         0.079         0.465
  HS02004881HS02006253        42.039        81.967         0.930         0.068         0.458
  YS02001793JiankangQianchi       945.370      1731.733        20.689         1.595        10.432
  YS02001757CaochengTiaoxuchi       482.232       863.414        10.312         0.749         5.088
  WSF200WS02003060           646.833      1193.360        18.030         1.632         9.630
  1                         2178.221      3707.706       147.815        17.572        89.912
  CC-Pump-1                  113.364       204.004         2.409         0.176         1.189
  CC-Pump-2                   39.591        71.286         0.841         0.062         0.415
  JK-Pump-1                  228.016       419.735         4.921         0.377         2.474
  JK-Pump-2                  447.991       829.530         9.507         0.722         4.759
  XR-Pump-1                  374.281       615.556        31.415         3.853        19.417
  XR-Pump-2                  360.615       593.690        30.103         3.689        18.597
  XR-Pump-3                  334.036       551.164        27.552         3.370        17.002
  XR-Pump-4                  334.036       551.164        27.552         3.370        17.002
  

  Analysis begun on:  Thu Jul 15 21:57:12 2021
  Analysis ended on:  Thu Jul 15 21:57:15 2021
  Total elapsed time: 00:00:03