
  EPA STORM WATER MANAGEMENT MODEL - VERSION 5.1 (Build 5.3.0.dev0)
  --------------------------------------------------------------

  WARNING 04: minimum elevation drop used for Conduit WS02004404WS02004405
  WARNING 03: negative offset ignored for Link YS02001904YS02001907
  
  *********************************************************
  NOTE: The summary statistics displayed in this report are
  based on results found at every computational time step,  
  not just on results from each reporting time step.
  *********************************************************
  
  ****************
  Analysis Options
  ****************
  Flow Units ............... LPS
  Process Models:
    Rainfall/Runoff ........ YES
    RDII ................... NO
    Snowmelt ............... NO
    Groundwater ............ NO
    Flow Routing ........... YES
    Ponding Allowed ........ NO
    Water Quality .......... YES
  Infiltration Method ...... HORTON
  Flow Routing Method ...... DYNWAVE
  Surcharge Method ......... EXTRAN
  Starting Date ............ 08/28/2015 08:00:00
  Ending Date .............. 08/28/2015 15:50:00
  Antecedent Dry Days ...... 8.0
  Report Time Step ......... 00:01:00
  Wet Time Step ............ 00:01:00
  Dry Time Step ............ 00:01:00
  Routing Time Step ........ 5.00 sec
  Variable Time Step ....... YES
  Maximum Trials ........... 8
  Number of Threads ........ 4
  Head Tolerance ........... 0.001500 m
  
  
  **************************        Volume         Depth
  Runoff Quantity Continuity     hectare-m            mm
  **************************     ---------       -------
  Total Precipitation ......         5.556        12.164
  Evaporation Loss .........         0.000         0.000
  Infiltration Loss ........         1.002         2.194
  Surface Runoff ...........         3.688         8.075
  Final Storage ............         0.866         1.897
  Continuity Error (%) .....        -0.019
  
  
  **************************           COD            SS            TN            TP         NH4-N
  Runoff Quality Continuity             kg            kg            kg            kg            kg
  **************************    ----------    ----------    ----------    ----------    ----------
  Initial Buildup ..........     41378.656     70582.865      1804.177       168.684      1032.807
  Surface Buildup ..........        19.275        34.271         2.335         0.213         1.362
  Wet Deposition ...........         0.000         0.000         0.000         0.000         0.000
  Sweeping Removal .........         0.000         0.000         0.000         0.000         0.000
  Infiltration Loss ........        84.023       157.502         1.599         0.111         0.761
  BMP Removal ..............         0.000         0.000         0.000         0.000         0.000
  Surface Runoff ...........      3122.074      5752.154        60.620         4.098        28.771
  Remaining Buildup ........     38190.779     64705.500      1744.271       164.686      1004.628
  Continuity Error (%) .....         0.003         0.003         0.001         0.001         0.001
  
  
  **************************        Volume        Volume
  Flow Routing Continuity        hectare-m      10^6 ltr
  **************************     ---------     ---------
  Dry Weather Inflow .......         0.616         6.165
  Wet Weather Inflow .......         3.687        36.870
  Groundwater Inflow .......         0.000         0.000
  RDII Inflow ..............         0.000         0.000
  External Inflow ..........         0.102         1.024
  External Outflow .........         1.939        19.386
  Flooding Loss ............         2.042        20.420
  Evaporation Loss .........         0.000         0.000
  Exfiltration Loss ........         0.000         0.000
  Initial Stored Volume ....         0.076         0.761
  Final Stored Volume ......         0.616         6.164
  Continuity Error (%) .....        -2.569
  
  
  **************************           COD            SS            TN            TP         NH4-N
  Quality Routing Continuity            kg            kg            kg            kg            kg
  **************************    ----------    ----------    ----------    ----------    ----------
  Dry Weather Inflow .......      1541.201      2465.922       147.955        18.494        92.472
  Wet Weather Inflow .......      3121.236      5750.706        60.602         4.097        28.763
  Groundwater Inflow .......         0.000         0.000         0.000         0.000         0.000
  RDII Inflow ..............         0.000         0.000         0.000         0.000         0.000
  External Inflow ..........       183.418       293.469        17.608         2.201        11.005
  External Outflow .........      2302.669      3933.153       150.712        17.801        91.388
  Flooding Loss ............      1874.956      3433.113        48.592         4.229        25.551
  Exfiltration Loss ........         0.000         0.000         0.000         0.000         0.000
  Mass Reacted .............         0.000         0.000         0.000         0.000         0.000
  Initial Stored Mass ......         0.000         0.000         0.000         0.000         0.000
  Final Stored Mass ........       525.664       900.119        23.333         2.485        13.508
  Continuity Error (%) .....         2.942         2.864         1.560         1.121         1.355
  
  
  *************************
  Highest Continuity Errors
  *************************
  Node HS02004842 (14.53%)
  Node JK-storage (-11.33%)
  Node YS02001884 (11.10%)
  Node YSB1171 (2.74%)
  Node HS02004817 (2.73%)
  
  
  ***************************
  Time-Step Critical Elements
  ***************************
  Link WS02006252WS02006251 (62.56%)
  Link WS02006280WS02006229 (10.20%)
  Link WS02006238WS02006235 (6.10%)
  Link YS02006556YS02006558 (3.46%)
  Link WS02004404WS02004405 (2.98%)
  
  
  ********************************
  Highest Flow Instability Indexes
  ********************************
  Link YS02163601YS02164001 (46)
  Link YS02163301YS02001633 (45)
  Link YS02001629YS02163301 (45)
  Link YS02001619YS02001622 (45)
  Link WS02006113WS02006111 (44)
  
  
  *************************
  Routing Time Step Summary
  *************************
  Minimum Time Step           :     0.50 sec
  Average Time Step           :     1.19 sec
  Maximum Time Step           :     5.00 sec
  Percent in Steady State     :    -0.00
  Average Iterations per Step :     4.82
  Percent Not Converging      :    23.25
  
  
  ***************************
  Subcatchment Runoff Summary
  ***************************
  
  ------------------------------------------------------------------------------------------------------------------------------
                            Total      Total      Total      Total     Imperv       Perv      Total       Total     Peak  Runoff
                           Precip      Runon       Evap      Infil     Runoff     Runoff     Runoff      Runoff   Runoff   Coeff
  Subcatchment                 mm         mm         mm         mm         mm         mm         mm    10^6 ltr      LPS
  ------------------------------------------------------------------------------------------------------------------------------
  sub0                      12.16       0.00       0.00       0.65      11.27       0.20      11.47        0.01     1.99   0.943
  sub1                      12.16       0.00       0.00       1.12      10.73       0.22      10.95        0.07    14.96   0.900
  sub2                      12.16       0.00       0.00       4.23       7.58       0.27       7.85        0.07    15.08   0.646
  sub3                      12.16       0.00       0.00       4.29       7.54       0.21       7.75        0.17    34.61   0.637
  sub4                      12.16       0.00       0.00       1.19      10.57       0.14      10.71        0.22    42.34   0.881
  sub5                      12.16       0.00       0.00       0.69      11.21       0.16      11.38        0.13    26.18   0.935
  sub7                      12.16       0.00       0.00       0.88      11.01       0.22      11.22        0.04     7.95   0.923
  sub8                      12.16       0.00       0.00       0.89      11.00       0.21      11.20        0.07    14.89   0.921
  sub9                      12.16       0.00       0.00       0.89      10.99       0.21      11.20        0.05    11.18   0.921
  sub10                     12.16       0.00       0.00       0.79      11.10       0.18      11.28        0.12    25.49   0.928
  sub11                     12.16       0.00       0.00       0.78      11.12       0.19      11.31        0.13    27.35   0.930
  sub12                     12.16       0.00       0.00       1.27      10.53       0.31      10.85        0.09    20.52   0.892
  sub14                     12.16       0.00       0.00       0.89      10.99       0.20      11.20        0.11    22.08   0.920
  sub15                     12.16       0.00       0.00       3.28       8.45       0.37       8.82        0.15    32.49   0.725
  sub16                     12.16       0.00       0.00       3.51       8.11       0.50       8.61        0.09    20.36   0.708
  sub17                     12.16       0.00       0.00       3.41       8.23       0.48       8.71        0.07    16.72   0.716
  sub22                     12.16       0.00       0.00       4.80       6.89       0.43       7.32        0.46   102.62   0.602
  sub23                     12.16       0.00       0.00       4.05       7.62       0.45       8.07        0.38    85.35   0.663
  sub60                     12.16       0.00       0.00       1.42       8.82       0.04       8.86        2.69   336.84   0.729
  sub61                     12.16       0.00       0.00       2.01       8.94       0.06       9.00        2.78   399.45   0.740
  sub62                     12.16       0.00       0.00       0.92       9.73       0.05       9.78        3.01   415.79   0.804
  sub63                     12.16       0.00       0.00       3.46       7.82       0.06       7.88        2.39   361.21   0.648
  sub64                     12.16       0.00       0.00       1.78       8.47       0.04       8.51        2.59   320.97   0.699
  sub65                     12.16       0.00       0.00       1.54       8.61       0.04       8.65        2.66   326.54   0.711
  sub66                     12.16       0.00       0.00       3.49       7.26       0.04       7.30        2.24   290.53   0.600
  sub67                     12.16       0.00       0.00       0.91      10.24       0.07      10.31        3.18   494.23   0.848
  sub68                     12.16       0.00       0.00       1.64       9.40       0.06       9.46        2.91   432.52   0.778
  sub69                     12.16       0.00       0.00       1.73       9.72       0.09       9.82        2.29   383.95   0.807
  sub70                     12.16      10.02       0.00       6.98      13.09       0.56      13.65        3.12   394.93   0.615
  sub71                     12.16       0.00       0.00       0.93       9.48       0.05       9.53        2.25   296.34   0.783
  sub72                     12.16       0.00       0.00       0.83       7.62       0.02       7.64        1.56   151.13   0.628
  1                         12.16      13.29       0.00       1.37      14.64       3.94      18.57        4.36   399.24   0.730
  2                         12.16       0.00       0.00       3.02       2.89       1.65       4.55        1.82   245.52   0.374
  
  
  ****************************
  Subcatchment Washoff Summary
  ****************************
  
  ------------------------------------------------------------------------------------------
                                 COD            SS            TN            TP         NH4-N
  Subcatchment                    kg            kg            kg            kg            kg
  ------------------------------------------------------------------------------------------
  sub0                         2.176         4.147         0.037         0.003         0.018
  sub1                         9.268        18.138         0.173         0.012         0.083
  sub2                         5.563        10.570         0.119         0.008         0.054
  sub3                        13.747        25.918         0.288         0.019         0.132
  sub4                        21.530        42.606         0.429         0.026         0.205
  sub5                        21.300        41.103         0.378         0.029         0.183
  sub7                         4.748         9.424         0.090         0.006         0.043
  sub8                         7.142        14.500         0.143         0.008         0.069
  sub9                         6.100        12.212         0.118         0.007         0.057
  sub10                       17.532        34.266         0.321         0.023         0.155
  sub11                       17.086        33.770         0.320         0.022         0.154
  sub12                       14.392        27.890         0.260         0.019         0.125
  sub14                       13.021        25.823         0.247         0.016         0.119
  sub15                       16.182        30.744         0.313         0.023         0.146
  sub16                       10.318        19.555         0.197         0.015         0.092
  sub17                        9.471        17.789         0.175         0.014         0.082
  sub22                       48.821        90.813         0.932         0.070         0.434
  sub23                       29.138        56.181         0.627         0.041         0.287
  sub60                      203.703       376.194         4.083         0.248         1.956
  sub61                      251.300       461.579         4.699         0.320         2.261
  sub62                      262.762       491.326         5.157         0.324         2.474
  sub63                      185.047       334.594         3.739         0.261         1.731
  sub64                      253.867       452.095         4.687         0.339         2.235
  sub65                      260.106       465.192         4.834         0.344         2.309
  sub66                      146.558       263.078         3.037         0.197         1.417
  sub67                      388.205       718.566         6.963         0.510         3.363
  sub68                      276.714       513.393         5.318         0.356         2.539
  sub69                      247.676       464.012         4.658         0.325         2.225
  sub70                      413.256       778.342         8.287         0.572         3.877
  sub71                      173.740       327.842         3.597         0.206         1.720
  sub72                      136.329       239.316         2.558         0.174         1.230
  1                          280.724       531.718         5.751         0.398         2.660
  2                           35.485        61.812         1.030         0.062         0.437
  ------------------------------------------------------------------------------------------
  System                    3783.006      6994.507        73.566         4.996        34.873
  
  
  ******************
  Node Depth Summary
  ******************
  
  ---------------------------------------------------------------------------------
                                 Average  Maximum  Maximum  Time of Max    Reported
                                   Depth    Depth      HGL   Occurrence   Max Depth
  Node                 Type       Meters   Meters   Meters  days hr:min      Meters
  ---------------------------------------------------------------------------------
  WS02001211           JUNCTION     0.77     0.82     5.66     0  03:15        0.82
  WS02001212           JUNCTION     0.48     0.54     5.61     0  03:14        0.54
  WS02001213           JUNCTION     0.72     0.81     5.57     0  03:13        0.81
  WS02003069           JUNCTION     0.51     0.66     5.24     0  03:12        0.66
  WS02003072           JUNCTION     0.58     0.71     5.08     0  03:13        0.71
  WS02003073           JUNCTION     0.35     0.44     4.51     0  03:13        0.44
  WS02003060           JUNCTION     0.46     0.58     5.51     0  03:12        0.58
  WS02003066           JUNCTION     0.25     0.35     5.90     0  03:11        0.35
  WS02003059           JUNCTION     0.77     0.86     5.55     0  03:12        0.86
  WS02003067           JUNCTION     0.60     0.77     6.09     0  03:11        0.77
  WS02004401           JUNCTION     0.72     1.07     7.07     0  03:08        1.07
  WS02004402           JUNCTION     0.74     1.08     7.04     0  03:08        1.08
  WS02004403           JUNCTION     0.76     1.08     7.01     0  03:08        1.07
  WS02004404           JUNCTION     0.83     1.13     6.98     0  03:08        1.13
  WS02004406           JUNCTION     0.83     1.08     6.91     0  03:08        1.08
  WS02004409           JUNCTION     0.53     0.82     6.59     0  03:10        0.82
  WS02004410           JUNCTION     0.55     0.82     6.54     0  03:10        0.82
  WS02004411           JUNCTION     0.56     0.82     6.50     0  03:10        0.82
  WS02004412           JUNCTION     0.57     0.81     6.45     0  03:10        0.81
  WS02004413           JUNCTION     0.73     0.95     6.42     0  03:10        0.95
  WS02004405           JUNCTION     0.83     1.12     6.97     0  03:07        1.11
  WS02006109           JUNCTION     0.81     1.22     7.84     0  03:06        1.20
  WS02006110           JUNCTION     0.79     1.07     7.66     0  03:07        1.07
  WS02006111           JUNCTION     0.24     0.53     7.24     0  03:08        0.53
  WS02006112           JUNCTION     0.89     1.33     7.22     0  03:08        1.32
  WS02006113           JUNCTION     0.36     0.57     7.46     0  03:08        0.57
  WS02006115           JUNCTION     0.61     1.01     7.15     0  03:08        1.01
  WS02006116           JUNCTION     0.69     1.08     7.12     0  03:08        1.07
  WS02006230           JUNCTION     0.81     1.41     8.16     0  03:06        1.41
  WS02006231           JUNCTION     0.56     1.12     8.24     0  03:06        1.12
  WS02006232           JUNCTION     0.69     1.29     8.32     0  03:06        1.28
  WS02006234           JUNCTION     0.63     1.25     8.41     0  03:07        1.25
  WS02006235           JUNCTION     0.67     1.31     8.47     0  03:07        1.30
  WS02006238           JUNCTION     0.69     1.33     8.48     0  03:07        1.32
  WS02006240           JUNCTION     0.59     1.24     8.53     0  03:06        1.23
  WS02006242           JUNCTION     0.64     1.30     8.57     0  03:06        1.29
  WS02006243           JUNCTION     0.52     1.19     8.61     0  03:07        1.17
  WS02006245           JUNCTION     0.49     1.16     8.64     0  03:49        1.15
  WS02006247           JUNCTION     0.50     1.16     8.66     0  03:06        1.15
  WS02006248           JUNCTION     0.44     1.10     8.68     0  03:49        1.08
  WS02006249           JUNCTION     0.46     1.09     8.69     0  03:04        1.09
  WS02006239           JUNCTION     0.65     1.30     8.51     0  03:06        1.29
  WS02006251           JUNCTION     0.43     1.49     9.16     0  03:50        1.41
  WS02006252           JUNCTION     0.28     1.07     9.31     0  03:50        0.95
  WS02006253           JUNCTION     0.46     1.69     9.34     0  03:50        1.51
  WS02006256           JUNCTION     1.75     2.35     9.28     0  00:52        2.35
  WS02004138           JUNCTION     0.19     0.20     7.45     0  00:00        0.19
  WS02004139           JUNCTION     0.72     0.76     5.67     0  03:15        0.76
  WS02004407           JUNCTION     0.24     0.36     6.67     0  03:09        0.35
  WS02006228           JUNCTION     0.82     1.33     7.98     0  03:06        1.33
  WS02006229           JUNCTION     0.80     1.37     8.06     0  03:06        1.36
  WS02006280           JUNCTION     0.07     0.20     8.47     0  03:02        0.20
  WS02006284           JUNCTION     0.37     0.56     8.96     0  03:02        0.56
  WS02006287           JUNCTION     0.10     0.30     9.25     0  03:01        0.30
  WSF200               JUNCTION     0.23     0.38     5.61     0  03:11        0.38
  HS02004901           JUNCTION     0.13     0.29    10.12     0  03:01        0.29
  HS02004881           JUNCTION     0.01     0.04     9.07     0  03:01        0.04
  HS02004876           JUNCTION     0.04     0.12     9.15     0  03:01        0.12
  HS02004870           JUNCTION     0.02     0.07     9.35     0  03:01        0.07
  HS02004862           JUNCTION     0.02     0.08     9.46     0  03:01        0.08
  HS02004856           JUNCTION     0.08     0.13     9.55     0  03:01        0.13
  HS02004852           JUNCTION     0.01     0.05     9.56     0  03:01        0.05
  HS02004848           JUNCTION     0.01     0.05     9.65     0  03:01        0.05
  HS02004842           JUNCTION     0.34     0.38     9.65     0  03:01        0.38
  HS02004837           JUNCTION     0.03     0.07     9.65     0  03:01        0.07
  HS02004830           JUNCTION     0.04     0.08     9.55     0  03:01        0.08
  HS02004824           JUNCTION     0.02     0.06     9.47     0  03:01        0.06
  HS02004817           JUNCTION     0.45     0.61     9.45     0  03:01        0.61
  HS02004807           JUNCTION     0.13     0.28     9.45     0  03:01        0.28
  HS02004802           JUNCTION     0.17     0.31     9.44     0  03:01        0.31
  HS02004799           JUNCTION     0.12     0.35     9.56     0  03:01        0.35
  HS02004792           JUNCTION     0.04     0.15     9.67     0  03:01        0.15
  HS02004788           JUNCTION     0.03     0.11    10.01     0  03:01        0.11
  HS02004785           JUNCTION     0.05     0.18    10.09     0  03:01        0.18
  HS02004777           JUNCTION     0.15     0.31    10.11     0  03:01        0.31
  HS02004770           JUNCTION     0.12     0.29    10.12     0  03:01        0.29
  HS02004480           JUNCTION     0.09     0.28     9.52     0  03:01        0.28
  HS02004479           JUNCTION     0.12     0.32     9.52     0  03:01        0.32
  HS02004478           JUNCTION     0.06     0.20     9.42     0  03:01        0.20
  YS02001745           JUNCTION     0.74     0.93     8.45     0  03:01        0.93
  YS02001748           JUNCTION     1.14     1.63     8.70     0  02:27        1.36
  YS02001751           JUNCTION     1.32     1.74     8.62     0  02:17        1.56
  YS02001754           JUNCTION     1.58     1.83     8.44     0  03:04        1.82
  YS02001762           JUNCTION     1.78     2.03     8.43     0  03:28        2.02
  YS02001765           JUNCTION     1.73     1.98     8.43     0  02:54        1.97
  YS02001767           JUNCTION     1.69     1.94     8.43     0  03:00        1.93
  YS02001770           JUNCTION     1.69     1.93     8.42     0  02:18        1.92
  YS02001774           JUNCTION     1.76     1.99     8.42     0  02:18        1.97
  YS02001779           JUNCTION     1.50     1.68     8.37     0  02:18        1.68
  YS02001882           JUNCTION     0.54     1.62     8.34     0  02:59        1.61
  YS02001884           JUNCTION     0.63     1.72     8.34     0  02:59        1.71
  YS02001759           JUNCTION     1.81     2.07     8.44     0  03:00        2.06
  YS02001887           JUNCTION     0.71     1.80     8.34     0  02:59        1.79
  YS02001890           JUNCTION     0.74     1.81     8.32     0  02:54        1.81
  YS02001898           JUNCTION     0.51     1.56     8.30     0  03:00        1.55
  YS02001901           JUNCTION     0.63     1.67     8.28     0  03:00        1.67
  YS02001904           JUNCTION     0.61     1.64     8.27     0  02:57        1.63
  YS02001907           JUNCTION     0.94     1.96     8.25     0  02:54        1.96
  YS02001910           JUNCTION     0.73     1.78     8.28     0  02:55        1.77
  YS02001915           JUNCTION     0.52     1.58     8.30     0  02:55        1.57
  YS02001918           JUNCTION     0.27     1.25     8.31     0  02:55        1.24
  YS02001619           JUNCTION     1.29     1.61     8.54     0  02:27        1.47
  YS02001629           JUNCTION     1.64     1.85     8.40     0  02:27        1.84
  YS02001641           JUNCTION     1.74     1.94     8.38     0  06:12        1.93
  YS02001644           JUNCTION     1.74     1.92     8.35     0  02:18        1.92
  YS02001652           JUNCTION     1.59     2.16     8.75     0  02:40        1.95
  YS02001655           JUNCTION     1.35     2.20     9.05     0  02:17        1.82
  YS02001920           JUNCTION     0.37     1.32     8.33     0  02:55        1.31
  YS02001923           JUNCTION     0.21     1.07     8.33     0  02:55        1.06
  YS02001926           JUNCTION     0.27     0.90     8.34     0  02:54        0.90
  YS02001929           JUNCTION     0.15     0.65     8.34     0  02:54        0.64
  YS02001658           JUNCTION     1.08     2.10     9.24     0  02:39        1.65
  YS02001661           JUNCTION     0.85     2.46     9.86     0  02:40        1.49
  YS02001664           JUNCTION     0.38     0.57     8.49     0  04:01        0.57
  YS02001622           JUNCTION     1.31     1.58     8.49     0  02:27        1.50
  YS02001633           JUNCTION     1.73     1.94     8.40     0  02:55        1.94
  YS02001649           JUNCTION     1.79     2.05     8.44     0  02:18        2.05
  YS02001757           JUNCTION     1.91     2.18     8.44     0  03:27        2.17
  YS02001895           JUNCTION     0.50     1.56     8.31     0  03:00        1.56
  YS02001625           JUNCTION     1.59     1.78     8.38     0  02:27        1.78
  YS02163301           JUNCTION     1.67     1.88     8.40     0  02:27        1.87
  YS02163601           JUNCTION     1.78     1.99     8.39     0  02:35        1.98
  YS02164001           JUNCTION     1.72     1.92     8.38     0  06:12        1.91
  YS02001647           JUNCTION     1.57     1.84     8.45     0  02:18        1.79
  YSB1154              JUNCTION     0.26     0.47     9.52     0  03:01        0.47
  YSB6556              JUNCTION     0.15     0.35     9.52     0  03:01        0.35
  YSB1174              JUNCTION     0.21     0.41     9.52     0  03:01        0.41
  YSB1171              JUNCTION     0.41     0.62     9.52     0  03:01        0.62
  YS02006553           JUNCTION     0.94     2.12     8.40     0  02:55        1.96
  YS02006561           JUNCTION     0.29     1.49     8.15     0  02:55        1.08
  YS02006556           JUNCTION     0.91     2.26     8.57     0  02:55        1.92
  YS02006558           JUNCTION     0.95     2.35     8.62     0  02:55        1.96
  YS02001783           JUNCTION     0.51     1.89     8.03     0  02:55        1.46
  YS02001784           JUNCTION     0.53     1.79     7.85     0  02:55        1.41
  YS02001786           JUNCTION     0.46     1.62     7.65     0  02:55        1.25
  YS02001788           JUNCTION     0.39     1.49     7.47     0  02:55        1.12
  YS02001790           JUNCTION     0.50     1.96     7.60     0  04:31        1.28
  YS02001791           JUNCTION     0.44     2.22     7.69     0  04:30        1.27
  YS02001793           JUNCTION     0.60     2.71     7.54     0  04:28        1.80
  WSC                  OUTFALL      0.35     0.44     1.11     0  03:14        0.44
  JK-storage           STORAGE      2.87     5.80     6.60     0  02:55        5.80
  CC-storage           STORAGE      1.17     1.42     8.42     0  03:03        1.42
  XR-storage           STORAGE      6.65     7.72     5.72     0  02:55        7.72
  
  
  *******************
  Node Inflow Summary
  *******************
  
  -------------------------------------------------------------------------------------------------
                                  Maximum  Maximum                  Lateral       Total        Flow
                                  Lateral    Total  Time of Max      Inflow      Inflow     Balance
                                   Inflow   Inflow   Occurrence      Volume      Volume       Error
  Node                 Type           LPS      LPS  days hr:min    10^6 ltr    10^6 ltr     Percent
  -------------------------------------------------------------------------------------------------
  WS02001211           JUNCTION      7.35   390.32     0  03:25       0.207        10.1       0.389
  WS02001212           JUNCTION      0.00   393.18     0  03:25           0          10       0.228
  WS02001213           JUNCTION      0.00   395.75     0  03:25           0          10       0.266
  WS02003069           JUNCTION      0.32  1152.68     0  03:12     0.00902        19.4       0.131
  WS02003072           JUNCTION      0.00  1152.64     0  03:13           0        19.4       0.168
  WS02003073           JUNCTION      1.82  1154.61     0  03:13      0.0514        19.4       0.186
  WS02003060           JUNCTION     16.53  1152.35     0  03:11       0.466        19.4       0.124
  WS02003066           JUNCTION      0.00   758.48     0  03:11           0        9.02       0.025
  WS02003059           JUNCTION      0.00   399.34     0  03:24           0          10       0.376
  WS02003067           JUNCTION      0.00   758.08     0  03:11           0        9.03       0.060
  WS02004401           JUNCTION      0.00   763.20     0  03:09           0        9.15       0.128
  WS02004402           JUNCTION      0.00   762.84     0  03:09           0        9.14       0.129
  WS02004403           JUNCTION      0.00   762.94     0  03:09           0        9.13       0.125
  WS02004404           JUNCTION      0.16   763.03     0  03:09     0.00457        9.12       0.087
  WS02004406           JUNCTION      0.00   763.31     0  03:09           0         9.1       0.250
  WS02004409           JUNCTION      0.00   763.29     0  03:09           0        9.08       0.061
  WS02004410           JUNCTION      0.00   760.57     0  03:09           0        9.07       0.082
  WS02004411           JUNCTION      0.00   758.84     0  03:10           0        9.07       0.095
  WS02004412           JUNCTION      0.00   758.14     0  03:10           0        9.06       0.117
  WS02004413           JUNCTION      0.00   757.99     0  03:10           0        9.05       0.194
  WS02004405           JUNCTION      0.04   763.14     0  03:09     0.00107        9.12       0.143
  WS02006109           JUNCTION      1.23   770.54     0  03:07      0.0347        9.14       0.113
  WS02006110           JUNCTION      0.00   770.46     0  03:07           0        9.13       0.107
  WS02006111           JUNCTION      0.00   764.17     0  03:07           0        9.11       0.007
  WS02006112           JUNCTION     16.72   762.46     0  03:08      0.0747        9.19       0.196
  WS02006113           JUNCTION      0.00   770.32     0  03:07           0        9.12       0.028
  WS02006115           JUNCTION      0.00   762.69     0  03:08           0        9.17       0.101
  WS02006116           JUNCTION      0.00   763.07     0  03:09           0        9.16       0.083
  WS02006230           JUNCTION     10.28   533.00     0  06:30        0.29        6.95       0.079
  WS02006231           JUNCTION      0.00   522.38     0  06:31           0        6.66      -0.047
  WS02006232           JUNCTION      0.00   522.29     0  06:30           0        6.66       0.093
  WS02006234           JUNCTION      0.00   522.81     0  06:30           0        6.66      -0.024
  WS02006235           JUNCTION      0.00   523.16     0  06:30           0        6.71       0.055
  WS02006238           JUNCTION      0.00   353.04     0  06:12           0        3.25       0.018
  WS02006240           JUNCTION      0.00   358.90     0  06:11           0         3.2       0.033
  WS02006242           JUNCTION      0.00   363.38     0  06:11           0        3.19       0.029
  WS02006243           JUNCTION      0.00   368.57     0  06:11           0        3.17      -0.107
  WS02006245           JUNCTION      0.00   372.87     0  06:11           0        3.17       0.188
  WS02006247           JUNCTION      0.00   377.04     0  06:10           0        3.17       0.000
  WS02006248           JUNCTION      0.00   381.47     0  06:10           0        3.17      -0.048
  WS02006249           JUNCTION      0.00   447.38     0  03:10           0         3.3       0.048
  WS02006239           JUNCTION      0.00   354.50     0  06:12           0        3.22      -0.141
  WS02006251           JUNCTION      0.08   445.48     0  03:10     0.00217        3.37      -0.009
  WS02006252           JUNCTION      0.00   400.00     0  03:50           0        2.88       0.004
  WS02006253           JUNCTION      1.99   141.60     0  03:50     0.00928       0.481      -0.080
  WS02006256           JUNCTION      0.00   983.00     0  02:30           0        9.79       0.003
  WS02004138           JUNCTION      0.00   380.00     0  00:00           0        9.92       0.069
  WS02004139           JUNCTION      0.32   394.45     0  00:00     0.00905        9.92       0.449
  WS02004407           JUNCTION      0.00   763.70     0  03:09           0        9.08       0.025
  WS02006228           JUNCTION      0.00   769.10     0  03:07           0        9.11       0.072
  WS02006229           JUNCTION      0.00   767.31     0  03:06           0        9.12       0.084
  WS02006280           JUNCTION      0.00   413.55     0  03:02           0        2.17       0.004
  WS02006284           JUNCTION      0.10   413.50     0  03:02      0.0027        2.17       0.040
  WS02006287           JUNCTION      0.00   413.16     0  03:01           0        2.17       0.034
  WSF200               JUNCTION      0.00   758.61     0  03:11           0        9.02       0.018
  HS02004901           JUNCTION     20.36    20.36     0  03:01      0.0901      0.0904       1.991
  HS02004881           JUNCTION      7.95    84.18     0  03:01      0.0378        0.41       0.103
  HS02004876           JUNCTION     14.96    76.75     0  03:01      0.0728       0.373       0.148
  HS02004870           JUNCTION     14.89    62.15     0  03:01      0.0716         0.3       0.037
  HS02004862           JUNCTION     15.28    47.68     0  03:01      0.0788       0.229       0.077
  HS02004856           JUNCTION     11.18    32.72     0  03:01      0.0539       0.152       0.964
  HS02004852           JUNCTION      0.00    21.94     0  03:01           0      0.0979       0.059
  HS02004848           JUNCTION     34.61    34.61     0  03:01       0.174       0.174       0.029
  HS02004842           JUNCTION      0.00    12.41     0  03:01           0      0.0895      16.998
  HS02004837           JUNCTION     31.84    43.95     0  03:01       0.303        0.38       0.214
  HS02004830           JUNCTION      0.15    43.85     0  03:01     0.00423        0.37       0.334
  HS02004824           JUNCTION     42.39    85.90     0  03:01       0.225       0.594       0.091
  HS02004817           JUNCTION      0.60    86.27     0  03:01      0.0169        0.61       2.809
  HS02004807           JUNCTION     27.35   112.31     0  03:01       0.131       0.725       0.605
  HS02004802           JUNCTION      0.00   111.35     0  03:01           0       0.723       0.548
  HS02004799           JUNCTION     22.08   258.91     0  03:01       0.107        1.24       0.223
  HS02004792           JUNCTION    102.90   237.98     0  03:01        0.47        1.14       0.036
  HS02004788           JUNCTION     34.16   135.93     0  03:01       0.199       0.669       0.058
  HS02004785           JUNCTION      0.15   103.51     0  03:01     0.00423       0.471       0.106
  HS02004777           JUNCTION      0.03   104.15     0  03:01    0.000846       0.472       1.115
  HS02004770           JUNCTION     85.35   105.10     0  03:01       0.385       0.473       0.659
  HS02004480           JUNCTION      0.00   302.40     0  03:01           0        1.46       0.076
  HS02004479           JUNCTION      0.00    44.88     0  03:02           0       0.232       0.317
  HS02004478           JUNCTION      0.00   413.02     0  03:01           0        2.17       0.013
  YS02001745           JUNCTION    336.84   406.87     0  02:27        2.69         2.7       0.422
  YS02001748           JUNCTION      0.04   573.64     0  02:27     0.00127        2.69       0.769
  YS02001751           JUNCTION      0.01   340.88     0  03:01     0.00031        2.66       0.891
  YS02001754           JUNCTION      0.26   341.29     0  03:01     0.00733        2.64       0.952
  YS02001762           JUNCTION      0.00   291.60     0  02:38           0        1.88       1.141
  YS02001765           JUNCTION      0.00   291.54     0  02:38           0        1.88       1.314
  YS02001767           JUNCTION      0.54   291.54     0  02:38      0.0151        1.91       1.901
  YS02001770           JUNCTION    415.94   604.68     0  03:04        3.01        3.41       0.929
  YS02001774           JUNCTION      0.00   604.82     0  03:04           0        1.89       1.341
  YS02001779           JUNCTION      0.01   604.66     0  03:04    0.000141        1.85       0.847
  YS02001882           JUNCTION      0.00    11.77     0  04:06           0      0.0202      13.133
  YS02001884           JUNCTION      0.00    17.02     0  04:06           0      0.0563      12.488
  YS02001759           JUNCTION    399.49   573.86     0  02:38        2.78        4.23       0.542
  YS02001887           JUNCTION    494.68   494.80     0  03:01        3.19        3.22       0.268
  YS02001890           JUNCTION      0.00   495.09     0  03:00           0        3.18       0.295
  YS02001898           JUNCTION      0.00   495.00     0  03:01           0        3.16       0.101
  YS02001901           JUNCTION      0.00   495.08     0  03:01           0        3.16       0.224
  YS02001904           JUNCTION      0.00   494.93     0  03:01           0        3.16       0.204
  YS02001907           JUNCTION      0.00   961.34     0  03:00           0        7.02       0.346
  YS02001910           JUNCTION      0.00   481.17     0  02:55           0        3.87       0.308
  YS02001915           JUNCTION    296.36   480.45     0  02:55        2.25        3.88       0.162
  YS02001918           JUNCTION      0.00   210.37     0  03:30           0        1.63       0.116
  YS02001619           JUNCTION    290.53   290.53     0  03:01        2.24        2.24       0.547
  YS02001629           JUNCTION      0.00   207.13     0  02:17           0        1.69       1.733
  YS02001641           JUNCTION      0.00   396.59     0  02:29           0        4.25       0.497
  YS02001644           JUNCTION    321.01  1395.98     0  03:01        2.59        10.3       0.260
  YS02001652           JUNCTION      0.00   372.39     0  03:01           0        2.35       1.007
  YS02001655           JUNCTION      0.15   385.93     0  02:18     0.00434        2.37       1.037
  YS02001920           JUNCTION      2.87   207.07     0  02:55      0.0809        1.63       0.188
  YS02001923           JUNCTION      0.04   199.89     0  02:55     0.00106        1.55       0.049
  YS02001926           JUNCTION      0.05   172.12     0  02:55     0.00147        1.56       0.219
  YS02001929           JUNCTION    151.13   151.13     0  03:01        1.56        1.56       0.036
  YS02001658           JUNCTION      0.00   611.54     0  02:23           0        2.41       0.909
  YS02001661           JUNCTION      0.00   624.27     0  02:40           0         2.9      -0.410
  YS02001664           JUNCTION    361.21   361.21     0  03:01        2.38        2.89       0.247
  YS02001622           JUNCTION      0.00   290.66     0  03:00           0        2.22       1.448
  YS02001633           JUNCTION    326.74   396.07     0  02:35        2.66        4.31       0.753
  YS02001649           JUNCTION      0.00   822.08     0  02:35           0        5.94       0.630
  YS02001757           JUNCTION      0.00  1575.93     0  02:35           0        8.96       1.031
  YS02001895           JUNCTION      0.00   494.87     0  03:01           0        3.17       0.168
  YS02001625           JUNCTION      0.00   290.73     0  03:01           0        2.19       1.803
  YS02163301           JUNCTION      0.00   199.37     0  02:22           0        1.67       1.460
  YS02163601           JUNCTION      0.11   396.24     0  02:35      0.0031        4.27       0.709
  YS02164001           JUNCTION      0.00   396.18     0  02:35           0        4.25       0.477
  YS02001647           JUNCTION      0.00   703.36     0  03:04           0        5.14       0.556
  YSB1154              JUNCTION     26.18    26.18     0  03:01       0.129        0.13       1.131
  YSB6556              JUNCTION      0.00    25.82     0  03:01           0        0.13       0.969
  YSB1174              JUNCTION     20.52    20.52     0  03:01      0.0948      0.0952       1.369
  YSB1171              JUNCTION      0.00    45.30     0  03:01           0       0.231       2.821
  YS02006553           JUNCTION      0.00   745.40     0  02:54           0        6.66       0.239
  YS02006561           JUNCTION      0.00  1139.79     0  02:54           0        9.54       0.008
  YS02006556           JUNCTION      0.00   745.62     0  02:54           0        6.67       0.174
  YS02006558           JUNCTION    433.40  1140.68     0  02:55        2.93        9.57       0.054
  YS02001783           JUNCTION      0.00  1139.66     0  02:54           0        9.54       0.025
  YS02001784           JUNCTION      1.06  1141.05     0  02:54      0.0299        9.57       0.039
  YS02001786           JUNCTION      0.06  1140.84     0  02:55     0.00159        9.57       0.039
  YS02001788           JUNCTION      0.07  1142.59     0  02:55       0.002        9.56       0.021
  YS02001790           JUNCTION      0.15  1154.52     0  02:54     0.00437        9.57       0.021
  YS02001791           JUNCTION      0.00  1240.75     0  02:53           0        9.56       0.007
  YS02001793           JUNCTION      0.00  1165.64     0  02:52           0        9.59       0.001
  WSC                  OUTFALL       0.00  1155.14     0  03:14           0        19.4       0.000
  JK-storage           STORAGE       0.00  1108.72     0  02:03           0        9.74     -10.176
  CC-storage           STORAGE       0.00  1575.74     0  02:35           0        6.86       0.955
  XR-storage           STORAGE     844.76   844.76     0  03:01        11.8        12.4      -0.003
  
  
  **********************
  Node Surcharge Summary
  **********************
  
  Surcharging occurs when water rises above the top of the highest conduit.
  ---------------------------------------------------------------------
                                               Max. Height   Min. Depth
                                   Hours       Above Crown    Below Rim
  Node                 Type      Surcharged         Meters       Meters
  ---------------------------------------------------------------------
  WS02004401           JUNCTION        0.23          0.073        1.587
  WS02004402           JUNCTION        0.33          0.081        1.659
  WS02004403           JUNCTION        0.35          0.076        1.954
  WS02004404           JUNCTION        0.79          0.131        2.649
  WS02004406           JUNCTION        0.60          0.084        2.366
  WS02004405           JUNCTION        0.66          0.115        2.685
  WS02006109           JUNCTION        3.50          0.400        1.420
  WS02006110           JUNCTION        1.70          0.163        1.687
  WS02006112           JUNCTION        2.23          0.333        1.347
  WS02006115           JUNCTION        0.02          0.004        2.246
  WS02006116           JUNCTION        0.05          0.017        2.273
  WS02006230           JUNCTION        1.14          0.333        1.237
  WS02006231           JUNCTION        1.58          0.410        1.120
  WS02006232           JUNCTION        3.45          0.585        0.895
  WS02006234           JUNCTION        2.40          0.532        0.708
  WS02006235           JUNCTION        2.87          0.600        0.690
  WS02006238           JUNCTION        2.97          0.614        0.816
  WS02006240           JUNCTION        1.81          0.532        0.858
  WS02006242           JUNCTION        1.91          0.571        0.249
  WS02006243           JUNCTION        1.24          0.476        0.294
  WS02006245           JUNCTION        1.10          0.447        0.403
  WS02006247           JUNCTION        1.11          0.449        0.311
  WS02006248           JUNCTION        0.96          0.377        0.003
  WS02006249           JUNCTION        1.00          0.390        0.000
  WS02006239           JUNCTION        2.27          0.560        0.730
  WS02006251           JUNCTION        0.49          0.459        0.721
  WS02006252           JUNCTION        1.36          0.667        0.433
  WS02006253           JUNCTION        0.52          0.652        1.828
  WS02006256           JUNCTION        6.85          2.050        0.000
  WS02006228           JUNCTION        3.46          0.502        1.698
  YS02001748           JUNCTION        5.31          0.546        0.644
  YS02001751           JUNCTION        5.47          0.745        0.455
  YS02001754           JUNCTION        5.69          0.781        0.369
  YS02001762           JUNCTION        5.87          1.033        0.117
  YS02001765           JUNCTION        5.84          0.981        0.119
  YS02001767           JUNCTION        5.81          0.937        0.093
  YS02001770           JUNCTION        5.80          0.900        0.020
  YS02001774           JUNCTION        5.86          0.993        0.057
  YS02001779           JUNCTION        5.67          0.680        0.000
  YS02001882           JUNCTION        0.84          0.619        0.211
  YS02001884           JUNCTION        0.87          0.661        0.209
  YS02001759           JUNCTION        5.89          1.073        0.137
  YS02001887           JUNCTION        0.96          0.749        0.201
  YS02001890           JUNCTION        1.00          0.760        0.000
  YS02001898           JUNCTION        0.78          0.532        0.208
  YS02001901           JUNCTION        0.91          0.673        0.197
  YS02001904           JUNCTION        0.89          0.637        0.213
  YS02001907           JUNCTION        1.79          0.950        0.000
  YS02001910           JUNCTION        1.05          0.776        0.324
  YS02001915           JUNCTION        0.81          0.585        0.415
  YS02001918           JUNCTION        0.57          0.248        0.562
  YS02001619           JUNCTION        5.47          0.610        0.000
  YS02001629           JUNCTION        5.48          0.470        0.000
  YS02001641           JUNCTION        5.85          0.939        0.161
  YS02001644           JUNCTION        5.85          0.920        0.000
  YS02001652           JUNCTION        5.73          1.125        0.005
  YS02001655           JUNCTION        5.50          1.200        0.000
  YS02001920           JUNCTION        0.61          0.324        0.816
  YS02001658           JUNCTION        5.34          1.101        0.199
  YS02001661           JUNCTION        0.18          1.390        0.000
  YS02001622           JUNCTION        5.51          0.585        0.035
  YS02001633           JUNCTION        5.83          0.925        0.135
  YS02001649           JUNCTION        5.87          1.050        0.000
  YS02001757           JUNCTION        5.98          1.176        0.034
  YS02001895           JUNCTION        0.80          0.562        0.188
  YS02001625           JUNCTION        5.76          0.780        0.000
  YS02163301           JUNCTION        5.81          0.883        0.147
  YS02163601           JUNCTION        5.87          0.991        0.089
  YS02164001           JUNCTION        5.84          0.921        0.179
  YS02001647           JUNCTION        5.75          0.839        0.061
  YS02006553           JUNCTION        1.88          1.117        0.073
  YS02006561           JUNCTION        0.57          0.686        0.464
  YS02006556           JUNCTION        1.30          1.223        0.127
  YS02006558           JUNCTION        1.26          1.252        0.148
  YS02001783           JUNCTION        0.98          1.085        0.515
  YS02001784           JUNCTION        0.93          0.987        0.503
  YS02001786           JUNCTION        0.71          0.820        0.610
  YS02001788           JUNCTION        0.57          0.689        0.791
  YS02001790           JUNCTION        1.28          1.157        0.000
  YS02001791           JUNCTION        1.40          1.421        0.499
  YS02001793           JUNCTION        1.73          1.712        0.888
  
  
  *********************
  Node Flooding Summary
  *********************
  
  Flooding refers to all water that overflows a node, whether it ponds or not.
  --------------------------------------------------------------------------
                                                             Total   Maximum
                                 Maximum   Time of Max       Flood    Ponded
                        Hours       Rate    Occurrence      Volume     Depth
  Node                 Flooded       LPS   days hr:min    10^6 ltr    Meters
  --------------------------------------------------------------------------
  WS02006249              0.46    184.53      0  03:10       0.131     0.000
  WS02006256              3.98    801.41      0  03:10       6.293     0.000
  YS02001779              2.92    604.60      0  03:04       1.834     0.000
  YS02001890              0.01      1.51      0  03:00       0.000     0.000
  YS02001907              0.43    425.11      0  03:00       0.343     0.000
  YS02001619              0.01     14.96      0  02:27       0.000     0.000
  YS02001629              0.01     10.80      0  02:27       0.000     0.000
  YS02001644              4.91   1395.90      0  03:01       8.619     0.000
  YS02001655              0.01    243.76      0  02:18       0.000     0.000
  YS02001661              0.01    133.29      0  02:40       0.000     0.000
  YS02001649              0.03     32.37      0  02:39       0.001     0.000
  YS02001625              1.21    236.16      0  03:01       0.465     0.000
  YS02001790              0.01    189.08      0  04:31       0.000     0.000
  JK-storage              0.69    965.56      0  03:00       0.859     0.000
  XR-storage              3.05    464.73      0  03:01       1.875     0.000
  
  
  **********************
  Storage Volume Summary
  **********************
  
  --------------------------------------------------------------------------------------------------
                         Average     Avg  Evap Exfil       Maximum     Max    Time of Max    Maximum
                          Volume    Pcnt  Pcnt  Pcnt        Volume    Pcnt     Occurrence    Outflow
  Storage Unit           1000 m3    Full  Loss  Loss       1000 m3    Full    days hr:min        LPS
  --------------------------------------------------------------------------------------------------
  JK-storage               0.144      50     0     0         0.291     100       0  02:55     983.00
  CC-storage               3.248      21     0     0         3.971      25       0  03:03     400.00
  XR-storage               0.798      86     0     0         0.926     100       0  02:55     380.00
  
  
  ***********************
  Outfall Loading Summary
  ***********************
  
  ---------------------------------------------------------------------------------------------------------------------------------
                         Flow       Avg       Max       Total         Total         Total         Total         Total         Total
                         Freq      Flow      Flow      Volume           COD            SS            TN            TP         NH4-N
  Outfall Node           Pcnt       LPS       LPS    10^6 ltr            kg            kg            kg            kg            kg
  ---------------------------------------------------------------------------------------------------------------------------------
  WSC                  100.00    769.97   1155.14      19.386      2302.782      3933.338       150.721        17.802        91.394
  ---------------------------------------------------------------------------------------------------------------------------------
  System               100.00    769.97   1155.14      19.386      2302.782      3933.338       150.721        17.802        91.394
  
  
  ********************
  Link Flow Summary
  ********************
  
  -----------------------------------------------------------------------------
                                 Maximum  Time of Max   Maximum    Max/    Max/
                                  |Flow|   Occurrence   |Veloc|    Full    Full
  Link                 Type          LPS  days hr:min     m/sec    Flow   Depth
  -----------------------------------------------------------------------------
  WS02003066WSF200     CONDUIT    758.61     0  03:11      2.90    0.13    0.28
  WS02006287WS02006284 CONDUIT    413.40     0  03:02      2.04    0.19    0.30
  WS02006284WS02006280 CONDUIT    413.55     0  03:02      2.28    0.17    0.28
  WS02006280WS02006229 CONDUIT    413.59     0  03:02      3.68    0.09    0.20
  WS02006229WS02006228 CONDUIT    769.10     0  03:07      1.53    2.55    1.00
  WS02006256WS02006235 CONDUIT    264.10     0  00:52      3.74    2.80    1.00
  WS02006253WS02006251 CONDUIT    134.17     0  03:50      0.55    0.40    1.00
  WS02006252WS02006251 CONDUIT    402.74     0  06:30      3.20    1.48    1.00
  WS02006251WS02006249 CONDUIT    447.38     0  03:10      1.16    1.29    1.00
  WS02006249WS02006248 CONDUIT    381.47     0  06:10      1.14    2.09    1.00
  WS02006248WS02006247 CONDUIT    377.04     0  06:10      1.11    0.82    1.00
  WS02006247WS02006245 CONDUIT    372.87     0  06:11      1.08    2.96    1.00
  WS02006245WS02006243 CONDUIT    368.57     0  06:11      1.09    1.09    1.00
  WS02006243WS02006242 CONDUIT    363.38     0  06:11      1.00    0.78    1.00
  WS02006242WS02006240 CONDUIT    358.90     0  06:11      0.97    1.43    1.00
  WS02006240WS02006239 CONDUIT    354.50     0  06:12      1.00    1.12    1.00
  WS02006239WS02006238 CONDUIT    353.04     0  06:12      0.95    1.13    1.00
  WS02006238WS02006235 CONDUIT    352.66     0  06:12      1.05    0.79    1.00
  WS02006235WS02006234 CONDUIT    522.81     0  06:30      1.36    5.52    1.00
  WS02006234WS02006232 CONDUIT    522.29     0  06:30      1.36    1.06    1.00
  WS02006232WS02006231 CONDUIT    522.38     0  06:31      1.36    1.09    1.00
  WS02006231WS02006230 CONDUIT    522.73     0  06:30      1.36    7.93    1.00
  WS02006230WS02006229 CONDUIT    534.98     0  06:30      1.39   11.91    1.00
  WS02006228WS02006109 CONDUIT    769.31     0  03:07      1.53    3.36    1.00
  WS02006116WS02004401 CONDUIT    763.20     0  03:09      0.97    1.05    1.00
  WS02006115WS02006116 CONDUIT    763.07     0  03:09      0.97    0.98    1.00
  WS02006113WS02006111 CONDUIT    764.17     0  03:07      2.60    0.92    0.69
  WS02006112WS02006115 CONDUIT    762.69     0  03:08      0.97    0.45    1.00
  WS02006111WS02006112 CONDUIT    755.24     0  03:08      1.72    0.36    0.83
  WS02006110WS02006113 CONDUIT    770.32     0  03:07      1.70    0.70    0.85
  WS02006109WS02006110 CONDUIT    770.46     0  03:07      1.53    1.48    1.00
  WS02004411WS02004412 CONDUIT    758.14     0  03:10      1.11    1.08    0.81
  WS02004401WS02004402 CONDUIT    762.84     0  03:09      0.97    0.92    1.00
  WS02004413WS02003067 CONDUIT    758.08     0  03:11      1.35    0.32    0.67
  WS02004412WS02004413 CONDUIT    757.99     0  03:10      1.03    0.51    0.88
  WS02004410WS02004411 CONDUIT    758.84     0  03:10      1.10    1.04    0.82
  WS02004409WS02004410 CONDUIT    760.57     0  03:09      1.11    0.98    0.82
  WS02004407WS02004409 CONDUIT    763.29     0  03:09      1.60    0.27    0.59
  WS02004406WS02004407 CONDUIT    763.70     0  03:09      1.35    0.34    0.68
  WS02004405WS02004406 CONDUIT    763.31     0  03:09      0.97    1.51    1.00
  WS02004404WS02004405 CONDUIT    763.10     0  03:09      0.97    7.48    1.00
  WS02004403WS02004404 CONDUIT    762.87     0  03:09      0.97    0.55    1.00
  WS02004402WS02004403 CONDUIT    762.94     0  03:09      0.97    1.10    1.00
  WS02004139WS02001211 CONDUIT    382.97     0  03:25      0.90    0.48    0.62
  WS02004138WS02004139 CONDUIT    394.13     0  00:00      3.62    0.08    0.45
  WS02003067WS02003066 CONDUIT    758.48     0  03:11      1.46    0.24    0.47
  WS02001213WS02003059 CONDUIT    399.34     0  03:24      0.89    0.66    0.83
  WS02001212WS02001213 CONDUIT    395.75     0  03:25      1.32    0.61    0.52
  WS02001211WS02001212 CONDUIT    393.18     0  03:25      0.78    0.30    0.68
  WS02003072WS02003073 CONDUIT   1152.79     0  03:13      1.86    2.49    0.54
  WS02003069WS02003072 CONDUIT   1152.64     0  03:13      1.73    0.55    0.57
  WS02003060WS02003069 CONDUIT   1152.36     0  03:12      1.96    0.45    0.52
  WS02003059WS02003060 CONDUIT    403.88     0  03:24      0.95    0.26    0.72
  HS02004901HS02004770 CONDUIT     20.52     0  03:01      0.07    0.08    0.42
  HS02004876HS02004881 CONDUIT     76.53     0  03:01      0.95    0.81    0.12
  HS02004870HS02004876 CONDUIT     61.89     0  03:01      0.65    0.04    0.14
  HS02004842HS02004848 CONDUIT     12.41     0  03:01      0.06    0.01    0.31
  HS02004837HS02004842 CONDUIT     12.97     0  03:02      0.42    0.01    0.32
  HS02004830HS02004837 CONDUIT     43.70     0  03:01      0.57    0.04    0.11
  HS02004824HS02004830 CONDUIT     43.66     0  03:01      0.59    0.06    0.11
  HS02004817HS02004824 CONDUIT     85.67     0  03:01      0.26    0.04    0.48
  HS02004770HS02004777 CONDUIT    104.12     0  03:01      0.35    0.19    0.43
  HS02004799HS02004480 CONDUIT    258.26     0  03:01      0.83    0.33    0.44
  HS02004792HS02004799 CONDUIT    237.00     0  03:01      0.95    0.15    0.36
  HS02004788HS02004792 CONDUIT    135.40     0  03:01      1.06    0.09    0.18
  HS02004785HS02004788 CONDUIT    103.20     0  03:02      0.71    0.78    0.21
  HS02004777HS02004785 CONDUIT    103.36     0  03:01      0.42    0.13    0.35
  HS02004480HS02004478 CONDUIT    302.24     0  03:01      1.26    1.27    0.34
  HS02004479HS02004480 CONDUIT     46.27     0  03:02      0.32    0.04    0.43
  HS02004862HS02004870 CONDUIT     47.43     0  03:01      0.66    0.05    0.10
  HS02004848HS02004852 CONDUIT     21.94     0  03:01      0.45    0.02    0.07
  HS02004856HS02004862 CONDUIT     32.47     0  03:01      0.48    0.03    0.10
  HS02004852HS02004856 CONDUIT     21.85     0  03:02      0.25    0.02    0.13
  HS02004802HS02004478 CONDUIT    111.50     0  03:02      0.45    0.10    0.36
  HS02004478WS02006287 CONDUIT    413.16     0  03:01      1.75    0.12    0.26
  HS02004817HS02004807 CONDUIT     86.12     0  03:01      0.19    0.05    0.63
  HS02004807HS02004802 CONDUIT    111.35     0  03:01      0.38    0.21    0.42
  YS02001759YS02001757 CONDUIT    573.71     0  02:38      0.73    0.41    1.00
  YS02001762YS02001759 CONDUIT    291.69     0  02:38      0.37    0.34    1.00
  YS02001765YS02001762 CONDUIT    291.60     0  02:38      0.37    0.27    1.00
  YS02001770YS02001767 CONDUIT    291.00     0  02:38      0.37    1.15    1.00
  YS02001774YS02001770 CONDUIT    604.82     0  03:04      0.77    0.39    1.00
  YS02001779YS02001774 CONDUIT    604.65     0  03:04      0.77    0.30    1.00
  YS02001649YS02001757 CONDUIT    822.48     0  02:34      1.05    0.50    1.00
  YS02001767YS02001765 CONDUIT    291.54     0  02:38      0.37    0.37    1.00
  YS02006561YS02001783 CONDUIT   1139.66     0  02:54      2.27    0.59    1.00
  YS02001783YS02001784 CONDUIT   1139.99     0  02:54      2.27    1.57    1.00
  YS02001784YS02001785 CONDUIT   1140.78     0  02:55      2.27    2.65    1.00
  YS02001788YS02001790 CONDUIT   1154.36     0  02:54      2.71    0.85    1.00
  YS02001790YS02001791 CONDUIT   1240.75     0  02:53      3.39    1.35    1.00
  YS02001791YS02001793 CONDUIT   1165.64     0  02:52      6.45    0.50    1.00
  YS02001910YS02001907 CONDUIT    480.74     0  02:55      0.61    0.27    1.00
  YS02001786YS02001788 CONDUIT   1142.52     0  02:55      2.44    2.20    1.00
  YS02001915YS02001910 CONDUIT    481.17     0  02:55      0.61    0.24    1.00
  YS02001918YS02001915 CONDUIT    247.70     0  03:31      0.44    0.14    1.00
  YS02001923YS02001920 CONDUIT    204.20     0  02:55      0.72    0.09    1.00
  YS02001926YS02001923 CONDUIT    199.85     0  02:55      0.83    0.29    0.88
  YS02001929YS02001926 CONDUIT    172.07     0  02:55      0.89    0.08    0.77
  YS02001920YS02001918 CONDUIT    210.37     0  03:30      0.70    0.20    1.00
  YS02001629YS02163301 CONDUIT    199.37     0  02:22      0.25    0.25    1.00
  YS02001619YS02001622 CONDUIT    290.66     0  03:00      0.61    0.43    1.00
  YS02001622YS02001625 CONDUIT    290.73     0  03:01      0.37    0.16    1.00
  YS02001625YS02001629 CONDUIT    207.13     0  02:17      0.27    0.10    1.00
  YS02163301YS02001633 CONDUIT    200.82     0  02:26      0.26    0.19    1.00
  YS02163601YS02164001 CONDUIT    396.18     0  02:35      0.50    0.35    1.00
  YS02164001YS02001641 CONDUIT    396.59     0  02:29      0.50    0.54    1.00
  YS02001641YS02001644 CONDUIT    399.42     0  02:29      0.51    1.29    1.00
  YS02001647YS02001649 CONDUIT    703.36     0  03:04      0.90    0.37    1.00
  YS02006553YS02006556 CONDUIT    745.62     0  02:54      0.95    0.64    1.00
  YS02006556YS02006558 CONDUIT    745.67     0  02:54      0.95    0.59    1.00
  YSB6556YSB1171       CONDUIT     25.74     0  03:03      0.09    0.03    0.70
  YS02001907YS02006553 CONDUIT    745.40     0  02:54      0.83    0.88    1.00
  YS02006558YS02006561 CONDUIT   1139.79     0  02:54      4.03    2.52    1.00
  YS02001633YS02163601 CONDUIT    396.13     0  02:35      0.50    0.42    1.00
  YS02001644YS02001647 CONDUIT    703.26     0  03:04      0.90    0.41    1.00
  YS02001745YS02001748 CONDUIT    573.59     0  02:27      1.47    0.22    0.96
  YS02001748YS02001751 CONDUIT    340.87     0  03:01      1.06    0.17    1.00
  YS02001751YS02001754 CONDUIT    341.03     0  03:01      0.92    0.16    1.00
  YS02001754YS02001757 CONDUIT    341.19     0  03:01      0.43    0.14    1.00
  YS02001882YS02001884 CONDUIT     12.61     0  03:59      0.13    0.01    1.00
  YS02001884YS02001887 CONDUIT     19.51     0  03:34      0.09    0.03    1.00
  YS02001890YS02001895 CONDUIT    494.87     0  03:01      0.63    0.23    1.00
  YS02001895YS02001898 CONDUIT    495.00     0  03:01      0.63    0.86    1.00
  YS02001898YS02001901 CONDUIT    495.08     0  03:01      0.63    0.32    1.00
  YS02001901YS02001904 CONDUIT    494.93     0  03:01      0.63    0.77    1.00
  YS02001904YS02001907 CONDUIT    495.42     0  03:01      0.63    0.17    1.00
  YS02001887YS02001890 CONDUIT    495.09     0  03:00      0.63    0.85    1.00
  YS02001652YS02001649 CONDUIT    372.82     0  03:01      0.63    0.18    1.00
  YS02001655YS02001652 CONDUIT    372.39     0  03:01      0.98    0.18    1.00
  YS02001658YS02001655 CONDUIT    385.78     0  02:18      1.22    0.16    1.00
  YS02001661YS02001658 CONDUIT    611.54     0  02:23      1.55    0.24    1.00
  YS02001664YS02001661 CONDUIT    624.27     0  02:40      1.43    0.20    0.77
  YSB1154YSB6556       CONDUIT     25.82     0  03:01      0.17    0.05    0.59
  YSB1174YSB1171       CONDUIT     20.16     0  03:01      0.07    0.03    0.70
  YSB1171HS02004479    CONDUIT     44.88     0  03:02      0.54    0.03    0.55
  HS02004881HS02006253 CONDUIT     84.15     0  03:01      2.08    0.02    0.52
  YS02001793JiankangQianchi CONDUIT   1108.72     0  02:03     16.26    0.09    1.00
  YS02001757CaochengTiaoxuchi CONDUIT   1575.74     0  02:35      2.02    0.69    1.00
  WSF200WS02003060     CONDUIT    758.93     0  03:11      1.79    0.17    0.40
  1                    CONDUIT   1155.14     0  03:14      3.46    0.40    0.44
  CC-Pump-1            PUMP       200.00     0  03:50              1.00
  CC-Pump-2            PUMP       200.00     0  03:50              1.00
  JK-Pump-1            PUMP       300.00     0  02:00              1.00
  JK-Pump-2            PUMP       683.00     0  02:30              1.00
  XR-Pump-1            PUMP        95.00     0  00:00              1.00
  XR-Pump-2            PUMP        95.00     0  00:00              1.00
  XR-Pump-3            PUMP        95.00     0  00:00              1.00
  XR-Pump-4            PUMP        95.00     0  00:00              1.00
  
  
  ***************************
  Flow Classification Summary
  ***************************
  
  -------------------------------------------------------------------------------------
                      Adjusted    ---------- Fraction of Time in Flow Class ---------- 
                       /Actual         Up    Down  Sub   Sup   Up    Down  Norm  Inlet 
  Conduit               Length    Dry  Dry   Dry   Crit  Crit  Crit  Crit  Ltd   Ctrl  
  -------------------------------------------------------------------------------------
  WS02003066WSF200        1.00   0.01  0.05  0.00  0.00  0.94  0.00  0.00  0.50  0.00
  WS02006287WS02006284    1.00   0.03  0.02  0.00  0.62  0.34  0.00  0.00  0.62  0.00
  WS02006284WS02006280    1.00   0.04  0.00  0.00  0.00  0.00  0.00  0.96  0.00  0.00
  WS02006280WS02006229    1.00   0.04  0.00  0.00  0.00  0.00  0.00  0.96  0.00  0.00
  WS02006229WS02006228    1.00   0.00  0.00  0.00  1.00  0.00  0.00  0.00  0.00  0.00
  WS02006256WS02006235    1.00   0.03  0.00  0.00  0.97  0.00  0.00  0.00  0.00  0.00
  WS02006253WS02006251    1.00   0.01  0.02  0.00  0.96  0.00  0.01  0.00  0.00  0.00
  WS02006252WS02006251    1.00   0.21  0.00  0.00  0.07  0.00  0.71  0.00  0.00  0.00
  WS02006251WS02006249    1.00   0.00  0.00  0.00  1.00  0.00  0.00  0.00  0.26  0.00
  WS02006249WS02006248    1.00   0.00  0.00  0.00  0.89  0.00  0.11  0.00  0.00  0.00
  WS02006248WS02006247    1.00   0.00  0.00  0.00  0.98  0.00  0.00  0.01  0.18  0.00
  WS02006247WS02006245    1.00   0.01  0.00  0.00  0.97  0.00  0.00  0.02  0.00  0.00
  WS02006245WS02006243    1.00   0.01  0.00  0.00  0.95  0.00  0.00  0.04  0.00  0.00
  WS02006243WS02006242    1.00   0.01  0.00  0.00  0.97  0.00  0.00  0.02  0.18  0.00
  WS02006242WS02006240    1.00   0.01  0.02  0.00  0.97  0.00  0.00  0.00  0.00  0.00
  WS02006240WS02006239    1.00   0.03  0.00  0.00  0.95  0.00  0.00  0.03  0.01  0.00
  WS02006239WS02006238    1.00   0.03  0.00  0.00  0.97  0.00  0.00  0.00  0.03  0.00
  WS02006238WS02006235    1.00   0.03  0.00  0.00  0.97  0.00  0.00  0.00  0.00  0.00
  WS02006235WS02006234    1.00   0.03  0.00  0.00  0.96  0.00  0.01  0.00  0.00  0.00
  WS02006234WS02006232    1.00   0.03  0.00  0.00  0.97  0.00  0.00  0.00  0.01  0.00
  WS02006232WS02006231    1.00   0.03  0.00  0.00  0.97  0.00  0.00  0.00  0.00  0.00
  WS02006231WS02006230    1.00   0.03  0.00  0.00  0.70  0.00  0.27  0.00  0.00  0.00
  WS02006230WS02006229    1.00   0.00  0.00  0.00  0.99  0.00  0.00  0.01  0.00  0.00
  WS02006228WS02006109    1.00   0.00  0.00  0.00  1.00  0.00  0.00  0.00  0.00  0.00
  WS02006116WS02004401    1.00   0.03  0.00  0.00  0.97  0.00  0.00  0.00  0.00  0.00
  WS02006115WS02006116    1.00   0.03  0.00  0.00  0.97  0.00  0.00  0.01  0.00  0.00
  WS02006113WS02006111    1.00   0.02  0.00  0.00  0.01  0.97  0.00  0.00  0.17  0.00
  WS02006112WS02006115    1.00   0.02  0.01  0.00  0.97  0.00  0.00  0.00  0.00  0.00
  WS02006111WS02006112    1.00   0.02  0.00  0.00  0.98  0.00  0.00  0.00  0.84  0.00
  WS02006110WS02006113    1.00   0.00  0.01  0.00  0.98  0.00  0.00  0.00  0.00  0.00
  WS02006109WS02006110    1.00   0.00  0.00  0.00  0.99  0.00  0.00  0.00  0.00  0.00
  WS02004411WS02004412    1.00   0.04  0.00  0.00  0.96  0.00  0.00  0.00  0.00  0.00
  WS02004401WS02004402    1.00   0.03  0.00  0.00  0.97  0.00  0.00  0.00  0.00  0.00
  WS02004413WS02003067    1.00   0.04  0.01  0.00  0.00  0.00  0.95  0.00  0.00  0.00
  WS02004412WS02004413    1.00   0.04  0.00  0.00  0.96  0.00  0.00  0.00  0.01  0.00
  WS02004410WS02004411    1.00   0.04  0.00  0.00  0.96  0.00  0.00  0.00  0.00  0.00
  WS02004409WS02004410    1.00   0.04  0.00  0.00  0.96  0.00  0.00  0.00  0.00  0.00
  WS02004407WS02004409    1.00   0.04  0.00  0.00  0.96  0.00  0.00  0.00  0.84  0.00
  WS02004406WS02004407    1.00   0.00  0.04  0.00  0.96  0.00  0.00  0.00  0.00  0.00
  WS02004405WS02004406    1.00   0.00  0.00  0.00  1.00  0.00  0.00  0.00  0.04  0.00
  WS02004404WS02004405    1.00   0.00  0.00  0.00  1.00  0.00  0.00  0.00  0.00  0.00
  WS02004403WS02004404    1.00   0.00  0.03  0.00  0.97  0.00  0.00  0.00  0.01  0.00
  WS02004402WS02004403    1.00   0.03  0.00  0.00  0.97  0.00  0.00  0.00  0.00  0.00
  WS02004139WS02001211    1.00   0.00  0.00  0.00  1.00  0.00  0.00  0.00  0.00  0.00
  WS02004138WS02004139    1.00   0.00  0.00  0.00  1.00  0.00  0.00  0.00  1.00  0.00
  WS02003067WS02003066    1.00   0.05  0.00  0.00  0.94  0.00  0.00  0.00  0.00  0.00
  WS02001213WS02003059    1.00   0.00  0.00  0.00  1.00  0.00  0.00  0.00  0.00  0.00
  WS02001212WS02001213    1.00   0.00  0.00  0.00  0.92  0.00  0.08  0.00  0.00  0.00
  WS02001211WS02001212    1.00   0.00  0.00  0.00  1.00  0.00  0.00  0.00  0.00  0.00
  WS02003072WS02003073    1.00   0.00  0.00  0.00  0.00  0.00  0.00  1.00  0.00  0.00
  WS02003069WS02003072    1.00   0.00  0.00  0.00  1.00  0.00  0.00  0.00  0.10  0.00
  WS02003060WS02003069    1.00   0.00  0.00  0.00  0.99  0.01  0.00  0.00  0.07  0.00
  WS02003059WS02003060    1.00   0.00  0.00  0.00  1.00  0.00  0.00  0.00  0.00  0.00
  HS02004901HS02004770    1.00   0.03  0.00  0.00  0.97  0.00  0.00  0.00  0.00  0.00
  HS02004876HS02004881    1.00   0.00  0.00  0.00  0.92  0.08  0.00  0.00  0.00  0.00
  HS02004870HS02004876    1.00   0.00  0.00  0.00  1.00  0.00  0.00  0.00  0.95  0.00
  HS02004842HS02004848    1.00   0.00  0.03  0.00  0.96  0.00  0.00  0.00  0.55  0.00
  HS02004837HS02004842    1.00   0.00  0.00  0.00  1.00  0.00  0.00  0.00  0.11  0.00
  HS02004830HS02004837    1.00   0.00  0.00  0.00  1.00  0.00  0.00  0.00  0.99  0.00
  HS02004824HS02004830    1.00   0.00  0.00  0.00  1.00  0.00  0.00  0.00  0.00  0.00
  HS02004817HS02004824    1.00   0.00  0.00  0.00  1.00  0.00  0.00  0.00  1.00  0.00
  HS02004770HS02004777    1.00   0.00  0.03  0.00  0.97  0.00  0.00  0.00  0.02  0.00
  HS02004799HS02004480    1.00   0.00  0.01  0.00  0.96  0.00  0.03  0.00  0.00  0.00
  HS02004792HS02004799    1.00   0.00  0.00  0.00  1.00  0.00  0.00  0.00  0.98  0.00
  HS02004788HS02004792    1.00   0.00  0.00  0.00  1.00  0.00  0.00  0.00  0.98  0.00
  HS02004785HS02004788    1.00   0.00  0.00  0.00  1.00  0.00  0.00  0.00  0.00  0.00
  HS02004777HS02004785    1.00   0.00  0.00  0.00  1.00  0.00  0.00  0.00  0.12  0.00
  HS02004480HS02004478    1.00   0.04  0.00  0.00  0.69  0.00  0.00  0.28  0.00  0.00
  HS02004479HS02004480    1.00   0.01  0.00  0.00  0.99  0.00  0.00  0.00  0.11  0.00
  HS02004862HS02004870    1.00   0.00  0.00  0.00  1.00  0.00  0.00  0.00  0.03  0.00
  HS02004848HS02004852    1.00   0.04  0.00  0.00  0.96  0.00  0.00  0.00  0.62  0.00
  HS02004856HS02004862    1.00   0.00  0.04  0.00  0.96  0.00  0.00  0.00  0.83  0.00
  HS02004852HS02004856    1.00   0.03  0.00  0.00  0.96  0.00  0.00  0.00  0.85  0.00
  HS02004802HS02004478    1.00   0.04  0.00  0.00  0.96  0.00  0.00  0.00  0.02  0.00
  HS02004478WS02006287    1.00   0.04  0.00  0.00  0.76  0.20  0.00  0.00  0.64  0.00
  HS02004817HS02004807    1.00   0.00  0.03  0.00  0.97  0.00  0.00  0.00  0.01  0.00
  HS02004807HS02004802    1.00   0.03  0.00  0.00  0.96  0.00  0.00  0.00  0.00  0.00
  YS02001759YS02001757    1.00   0.00  0.00  0.00  1.00  0.00  0.00  0.00  0.16  0.00
  YS02001762YS02001759    1.00   0.00  0.00  0.00  1.00  0.00  0.00  0.00  0.03  0.00
  YS02001765YS02001762    1.00   0.00  0.00  0.00  1.00  0.00  0.00  0.00  0.13  0.00
  YS02001770YS02001767    1.00   0.00  0.00  0.00  1.00  0.00  0.00  0.00  0.00  0.00
  YS02001774YS02001770    1.00   0.00  0.04  0.00  0.96  0.00  0.00  0.00  0.02  0.00
  YS02001779YS02001774    1.00   0.00  0.00  0.00  1.00  0.00  0.00  0.00  0.18  0.00
  YS02001649YS02001757    1.00   0.00  0.00  0.00  1.00  0.00  0.00  0.00  0.16  0.00
  YS02001767YS02001765    1.00   0.00  0.00  0.00  1.00  0.00  0.00  0.00  0.00  0.00
  YS02006561YS02001783    1.00   0.05  0.00  0.00  0.34  0.61  0.00  0.00  0.48  0.00
  YS02001783YS02001784    1.00   0.00  0.05  0.00  0.95  0.00  0.00  0.00  0.00  0.00
  YS02001784YS02001785    1.00   0.00  0.00  0.00  1.00  0.00  0.00  0.00  0.17  0.00
  YS02001788YS02001790    1.00   0.00  0.00  0.00  0.34  0.66  0.00  0.00  0.40  0.00
  YS02001790YS02001791    1.00   0.00  0.00  0.00  0.30  0.70  0.00  0.00  0.51  0.00
  YS02001791YS02001793    1.00   0.00  0.00  0.00  0.35  0.65  0.00  0.00  0.03  0.00
  YS02001910YS02001907    1.00   0.00  0.00  0.00  0.99  0.00  0.00  0.01  0.12  0.00
  YS02001786YS02001788    1.00   0.00  0.00  0.00  0.34  0.66  0.00  0.00  0.00  0.00
  YS02001915YS02001910    1.00   0.00  0.00  0.00  0.99  0.01  0.00  0.00  0.15  0.00
  YS02001918YS02001915    1.00   0.00  0.00  0.00  0.99  0.00  0.00  0.00  0.55  0.00
  YS02001923YS02001920    1.00   0.00  0.00  0.00  1.00  0.00  0.00  0.00  0.85  0.00
  YS02001926YS02001923    1.00   0.00  0.02  0.00  0.13  0.00  0.86  0.00  0.00  0.00
  YS02001929YS02001926    1.00   0.00  0.03  0.00  0.97  0.00  0.00  0.00  0.78  0.00
  YS02001920YS02001918    1.00   0.00  0.00  0.00  1.00  0.00  0.00  0.00  0.00  0.00
  YS02001629YS02163301    1.00   0.04  0.00  0.00  0.96  0.00  0.00  0.00  0.00  0.00
  YS02001619YS02001622    1.00   0.03  0.00  0.00  0.97  0.00  0.00  0.00  0.00  0.00
  YS02001622YS02001625    1.00   0.03  0.00  0.00  0.97  0.00  0.00  0.00  0.04  0.00
  YS02001625YS02001629    1.00   0.04  0.01  0.00  0.93  0.00  0.02  0.00  0.00  0.00
  YS02163301YS02001633    1.00   0.00  0.04  0.00  0.96  0.00  0.00  0.00  0.00  0.00
  YS02163601YS02164001    1.00   0.00  0.02  0.00  0.98  0.00  0.00  0.00  0.00  0.00
  YS02164001YS02001641    1.00   0.00  0.02  0.00  0.98  0.00  0.00  0.00  0.06  0.00
  YS02001641YS02001644    1.00   0.00  0.00  0.00  1.00  0.00  0.00  0.00  0.00  0.00
  YS02001647YS02001649    1.00   0.00  0.05  0.00  0.95  0.00  0.00  0.00  0.01  0.00
  YS02006553YS02006556    1.00   0.00  0.00  0.00  1.00  0.00  0.00  0.00  0.03  0.00
  YS02006556YS02006558    1.00   0.00  0.00  0.00  1.00  0.00  0.00  0.00  0.00  0.00
  YSB6556YSB1171          1.00   0.01  0.02  0.00  0.97  0.00  0.00  0.00  0.00  0.00
  YS02001907YS02006553    1.00   0.00  0.01  0.00  0.99  0.00  0.00  0.00  0.00  0.00
  YS02006558YS02006561    1.00   0.05  0.00  0.00  0.11  0.84  0.00  0.00  0.49  0.00
  YS02001633YS02163601    1.00   0.00  0.00  0.00  1.00  0.00  0.00  0.00  0.15  0.00
  YS02001644YS02001647    1.00   0.00  0.05  0.00  0.95  0.00  0.00  0.00  0.00  0.00
  YS02001745YS02001748    1.00   0.00  0.00  0.00  0.91  0.01  0.00  0.08  0.04  0.00
  YS02001748YS02001751    1.00   0.00  0.00  0.00  0.97  0.03  0.00  0.00  0.15  0.00
  YS02001751YS02001754    1.00   0.00  0.00  0.00  0.94  0.00  0.00  0.05  0.02  0.00
  YS02001754YS02001757    1.00   0.00  0.00  0.00  1.00  0.00  0.00  0.00  0.18  0.00
  YS02001882YS02001884    1.00   0.04  0.00  0.00  0.96  0.00  0.00  0.00  0.00  0.00
  YS02001884YS02001887    1.00   0.01  0.01  0.00  0.97  0.00  0.00  0.00  0.00  0.00
  YS02001890YS02001895    1.00   0.00  0.04  0.00  0.96  0.00  0.00  0.00  0.00  0.00
  YS02001895YS02001898    1.00   0.04  0.00  0.00  0.95  0.00  0.01  0.00  0.00  0.00
  YS02001898YS02001901    1.00   0.04  0.00  0.00  0.96  0.00  0.00  0.00  0.01  0.00
  YS02001901YS02001904    1.00   0.04  0.00  0.00  0.96  0.00  0.00  0.00  0.00  0.00
  YS02001904YS02001907    1.00   0.00  0.04  0.00  0.96  0.00  0.00  0.00  0.00  0.00
  YS02001887YS02001890    1.00   0.00  0.00  0.00  0.99  0.00  0.01  0.00  0.00  0.00
  YS02001652YS02001649    1.00   0.00  0.00  0.00  1.00  0.00  0.00  0.00  0.16  0.00
  YS02001655YS02001652    1.00   0.00  0.00  0.00  0.95  0.00  0.00  0.05  0.02  0.00
  YS02001658YS02001655    1.00   0.00  0.04  0.00  0.93  0.03  0.00  0.00  0.08  0.00
  YS02001661YS02001658    1.00   0.04  0.00  0.00  0.91  0.05  0.00  0.00  0.08  0.00
  YS02001664YS02001661    1.00   0.03  0.00  0.00  0.92  0.05  0.00  0.00  0.19  0.00
  YSB1154YSB6556          1.00   0.03  0.00  0.00  0.97  0.00  0.00  0.00  0.01  0.00
  YSB1174YSB1171          1.00   0.01  0.01  0.00  0.98  0.00  0.00  0.00  0.00  0.00
  YSB1171HS02004479       1.00   0.01  0.00  0.00  0.99  0.00  0.00  0.00  0.10  0.00
  HS02004881HS02006253    1.00   0.01  0.00  0.00  0.61  0.05  0.00  0.32  0.45  0.00
  YS02001793JiankangQianchi    1.00   0.00  0.00  0.00  0.68  0.32  0.00  0.00  0.45  0.00
  YS02001757CaochengTiaoxuchi    1.00   0.00  0.07  0.00  0.93  0.00  0.00  0.00  0.00  0.00
  WSF200WS02003060        1.00   0.00  0.01  0.00  0.98  0.01  0.00  0.00  0.41  0.00
  1                       1.00   0.00  0.00  0.00  0.00  1.00  0.00  0.00  0.45  0.00
  
  
  *************************
  Conduit Surcharge Summary
  *************************
  
  ----------------------------------------------------------------------------
                                                           Hours        Hours 
                         --------- Hours Full --------   Above Full   Capacity
  Conduit                Both Ends  Upstream  Dnstream   Normal Flow   Limited
  ----------------------------------------------------------------------------
  WS02006229WS02006228        3.46      3.55      3.46      4.37         3.46
  WS02006256WS02006235        5.60      5.60      6.84      4.38         0.01
  WS02006253WS02006251        0.92      0.92      0.95      0.01         0.03
  WS02006252WS02006251        0.75      0.75      1.36      1.12         0.01
  WS02006251WS02006249        0.93      0.93      1.00      0.46         0.33
  WS02006249WS02006248        0.96      0.96      1.00      2.41         0.01
  WS02006248WS02006247        1.00      1.00      1.10      0.01         0.01
  WS02006247WS02006245        1.10      1.14      1.10      3.12         1.09
  WS02006245WS02006243        1.14      1.14      1.24      0.09         0.08
  WS02006243WS02006242        1.29      1.29      1.91      0.01         0.01
  WS02006242WS02006240        1.81      1.81      2.33      1.14         0.01
  WS02006240WS02006239        1.89      1.89      2.27      0.41         0.25
  WS02006239WS02006238        2.65      2.65      2.97      0.46         0.30
  WS02006238WS02006235        2.96      2.96      3.14      0.01         0.02
  WS02006235WS02006234        2.40      2.40      2.87      5.52         0.01
  WS02006234WS02006232        2.64      2.64      3.45      0.51         0.50
  WS02006232WS02006231        1.58      1.58      3.45      0.65         0.01
  WS02006231WS02006230        1.14      1.14      1.67      5.72         0.01
  WS02006230WS02006229        3.97      4.24      3.97      5.94         3.97
  WS02006228WS02006109        3.50      3.74      3.50      4.79         3.50
  WS02006116WS02004401        0.20      0.20      0.23      0.11         0.11
[...]
  YS02001765YS02001762        5.84      5.84      5.87      0.01         0.01
  YS02001770YS02001767        5.81      5.81      5.81      0.19         0.74
  YS02001774YS02001770        5.80      5.80      5.86      0.01         0.01
  YS02001779YS02001774        5.67      5.67      5.86      0.01         0.01
  YS02001649YS02001757        5.87      5.87      5.98      0.01         0.01
  YS02001767YS02001765        5.81      5.81      5.84      0.01         0.01
  YS02006561YS02001783        0.57      0.57      0.98      0.01         0.01
  YS02001783YS02001784        0.93      0.98      0.93      1.41         0.93
  YS02001784YS02001785        0.71      0.93      0.71      2.39         0.71
  YS02001788YS02001790        0.57      0.57      1.28      0.01         0.01
  YS02001790YS02001791        1.28      1.28      1.40      0.89         0.65
  YS02001791YS02001793        1.40      1.40      1.85      0.01         0.01
  YS02001910YS02001907        1.05      1.05      1.79      0.01         0.01
  YS02001786YS02001788        0.57      0.71      0.57      1.96         0.57
  YS02001915YS02001910        0.81      0.81      1.05      0.01         0.01
  YS02001918YS02001915        0.57      0.57      0.81      0.01         0.01
  YS02001923YS02001920        0.42      0.42      0.61      0.01         0.01
  YS02001920YS02001918        0.57      0.57      0.61      0.01         0.01
  YS02001629YS02163301        5.80      5.80      5.81      0.01         0.01
  YS02001619YS02001622        5.47      5.47      5.51      0.01         0.01
  YS02001622YS02001625        5.51      5.51      5.76      0.01         0.01
  YS02001625YS02001629        5.48      5.48      5.76      0.01         0.01
  YS02163301YS02001633        5.81      5.81      5.84      0.01         0.01
  YS02163601YS02164001        5.84      5.84      5.87      0.01         0.01
  YS02164001YS02001641        5.84      5.84      5.85      0.01         0.03
  YS02001641YS02001644        5.85      5.85      5.85      1.52         1.63
  YS02001647YS02001649        5.75      5.75      5.87      0.01         0.01
  YS02006553YS02006556        1.30      1.30      1.88      0.01         0.01
  YS02006556YS02006558        1.51      1.51      1.95      0.01         0.01
  YS02001907YS02006553        2.41      2.41      2.62      0.01         0.01
  YS02006558YS02006561        0.71      1.26      0.71      2.24         0.71
  YS02001633YS02163601        5.83      5.83      5.87      0.01         0.01
  YS02001644YS02001647        5.75      5.75      5.85      0.01         0.01
  YS02001745YS02001748        0.01      0.01      5.30      0.01         0.01
  YS02001748YS02001751        5.36      5.36      5.47      0.01         0.01
  YS02001751YS02001754        5.47      5.47      5.69      0.01         0.01
  YS02001754YS02001757        5.74      5.74      5.98      0.01         0.01
  YS02001882YS02001884        0.84      0.84      0.87      0.01         0.01
  YS02001884YS02001887        0.93      0.93      0.96      0.01         0.01
  YS02001890YS02001895        0.80      0.80      1.07      0.01         0.01
  YS02001895YS02001898        0.78      0.78      0.80      0.01         0.01
  YS02001898YS02001901        0.80      0.80      0.91      0.01         0.01
  YS02001901YS02001904        0.89      0.89      0.91      0.01         0.01
  YS02001904YS02001907        0.89      0.89      1.89      0.01         0.01
  YS02001887YS02001890        1.00      1.00      1.03      0.01         0.01
  YS02001652YS02001649        5.76      5.76      5.87      0.01         0.01
  YS02001655YS02001652        5.50      5.50      5.73      0.01         0.01
  YS02001658YS02001655        5.33      5.33      5.50      0.01         0.01
  YS02001661YS02001658        0.16      0.16      5.33      0.01         0.01
  YS02001664YS02001661        0.01      0.01      1.32      0.01         0.01
  HS02004881HS02006253        0.01      0.01      0.52      0.01         0.01
  YS02001793JiankangQianchi        1.73      1.73      5.09      0.01         0.01
  YS02001757CaochengTiaoxuchi        5.21      5.21      5.98      0.01         0.01
  
  
  ***************
  Pumping Summary
  ***************
  
  ---------------------------------------------------------------------------------------------------------
                                                  Min       Avg       Max     Total     Power    % Time Off
                        Percent   Number of      Flow      Flow      Flow    Volume     Usage    Pump Curve
  Pump                 Utilized   Start-Ups       LPS       LPS       LPS  10^6 ltr     Kw-hr    Low   High
  ---------------------------------------------------------------------------------------------------------
  CC-Pump-1               51.06           3      0.00    141.64    200.00     1.920      1.69    0.0    0.0
  CC-Pump-2               31.92           4      0.00    100.42    200.00     0.960      1.05    0.0    0.0
  JK-Pump-1               61.70           4      0.00    217.59    300.00     3.588     54.13    0.0    0.0
  JK-Pump-2               57.45           4      0.00    394.80    683.00     6.202     89.56    0.0   94.9
  XR-Pump-1              100.00           1      0.00     94.49     95.00     2.622     26.42    0.0    0.0
  XR-Pump-2              100.00           1      0.00     92.64     95.00     2.508     23.91    0.0    0.0
  XR-Pump-3               95.74           3      0.00     92.40     95.00     2.394     21.61    0.0    0.0
  XR-Pump-4               95.74           3      0.00     92.40     95.00     2.394     21.61    0.0    0.0
  
  
  ***************************
  Link Pollutant Load Summary
  ***************************
  
  ------------------------------------------------------------------------------------------
                                 COD            SS            TN            TP         NH4-N
  Link                            kg            kg            kg            kg            kg
  ------------------------------------------------------------------------------------------
  WS02003066WSF200           763.747      1406.165        20.418         1.801        10.797
  WS02006287WS02006284       268.037       498.163         9.346         0.943         5.214
  WS02006284WS02006280       268.525       498.947         9.393         0.949         5.243
  WS02006280WS02006229       268.494       498.889         9.391         0.949         5.242
  WS02006229WS02006228       757.761      1395.487        19.960         1.742        10.515
  WS02006256WS02006235       215.000       393.852         4.724         0.367         2.387
  WS02006253WS02006251        54.582       104.796         1.236         0.094         0.616
  WS02006252WS02006251       243.123       440.453         5.149         0.376         2.542
  WS02006251WS02006249       288.013       527.766         6.180         0.455         3.059
  WS02006249WS02006248       275.958       505.660         5.923         0.436         2.931
  WS02006248WS02006247       276.224       506.163         5.932         0.436         2.936
  WS02006247WS02006245       276.274       506.231         5.938         0.437         2.940
  WS02006245WS02006243       276.003       505.796         5.932         0.437         2.937
  WS02006243WS02006242       276.422       506.539         5.948         0.438         2.946
  WS02006242WS02006240       276.153       506.101         5.926         0.436         2.932
  WS02006240WS02006239       276.271       506.299         5.928         0.436         2.934
  WS02006239WS02006238       277.349       508.138         5.963         0.439         2.953
  WS02006238WS02006235       277.882       508.935         5.984         0.441         2.965
  WS02006235WS02006234       491.079       899.694        10.648         0.802         5.318
  WS02006234WS02006232       490.872       899.322        10.646         0.802         5.317
  WS02006232WS02006231       490.813       899.214        10.644         0.802         5.316
  WS02006231WS02006230       491.058       899.634        10.651         0.803         5.321
  WS02006230WS02006229       490.188       898.152        10.626         0.800         5.307
  WS02006228WS02006109       756.834      1393.954        19.892         1.734        10.473
  WS02006116WS02004401       769.647      1416.613        20.584         1.815        10.885
  WS02006115WS02006116       770.444      1417.997        20.615         1.819        10.903
  WS02006113WS02006111       763.356      1404.267        20.569         1.819        10.898
  WS02006112WS02006115       771.246      1419.382        20.653         1.823        10.925
  WS02006111WS02006112       762.803      1403.305        20.544         1.817        10.883
  WS02006110WS02006113       763.615      1404.705        20.585         1.821        10.907
  WS02006109WS02006110       764.614      1406.374        20.653         1.829        10.949
  WS02004411WS02004412       765.597      1409.406        20.491         1.808        10.839
  WS02004401WS02004402       768.773      1415.099        20.547         1.811        10.864
  WS02004413WS02003067       764.001      1406.629        20.423         1.801        10.800
  WS02004412WS02004413       764.981      1408.322        20.471         1.806        10.827
  WS02004410WS02004411       765.980      1410.085        20.503         1.809        10.845
  WS02004409WS02004410       766.386      1410.800        20.518         1.811        10.854
  WS02004407WS02004409       766.564      1411.118        20.522         1.811        10.856
  WS02004406WS02004407       766.429      1410.890        20.515         1.810        10.852
  WS02004405WS02004406       767.752      1413.128        20.596         1.820        10.900
  WS02004404WS02004405       768.101      1413.794        20.582         1.817        10.890
  WS02004403WS02004404       767.285      1412.514        20.489         1.805        10.831
  WS02004402WS02004403       768.013      1413.777        20.518         1.808        10.848
  WS02004139WS02001211      1399.216      2305.255       116.349        14.248        71.851
  WS02004138WS02004139      1405.513      2315.658       116.856        14.310        72.163
  WS02003067WS02003066       763.845      1406.341        20.421         1.801        10.799
  WS02001213WS02003059      1432.837      2358.352       119.783        14.681        74.007
  WS02001212WS02001213      1441.716      2372.936       120.525        14.772        74.465
  WS02001211WS02001212      1443.601      2375.998       120.691        14.792        74.568
  WS02003072WS02003073      2297.618      3925.469       150.122        17.725        91.014
  WS02003069WS02003072      2302.430      3933.317       150.532        17.775        91.268
  WS02003060WS02003069      2305.117      3937.813       150.728        17.799        91.388
  WS02003059WS02003060      1430.197      2353.932       119.588        14.657        73.887
  HS02004901HS02004770        10.270        19.477         0.195         0.015         0.091
  HS02004876HS02004881        37.314        72.572         0.843         0.062         0.416
  HS02004870HS02004876        28.158        54.622         0.678         0.051         0.338
  HS02004842HS02004848         5.467        10.276         0.115         0.008         0.053
  HS02004837HS02004842        10.074        17.584         0.584         0.067         0.347
  HS02004830HS02004837        65.635       112.697         4.556         0.546         2.785
  HS02004824HS02004830        66.386       113.900         4.628         0.555         2.829
  HS02004817HS02004824        88.202       156.967         5.083         0.584         3.051
  HS02004770HS02004777        39.294        75.461         0.819         0.055         0.377
  HS02004799HS02004480       131.399       245.347         3.680         0.335         1.932
  HS02004792HS02004799       119.078       220.645         3.497         0.327         1.853
  HS02004788HS02004792        68.393       126.850         2.388         0.235         1.309
  HS02004785HS02004788        40.730        77.754         0.969         0.074         0.471
  HS02004777HS02004785        40.056        76.660         0.908         0.067         0.433
  HS02004480HS02004478       165.940       312.567         4.243         0.375         2.196
  HS02004479HS02004480        38.147        72.976         0.884         0.079         0.462
  HS02004862HS02004870        21.014        40.113         0.536         0.043         0.270
  HS02004848HS02004852         8.057        15.278         0.167         0.011         0.077
  HS02004856HS02004862        14.070        27.338         0.284         0.019         0.133
  HS02004852HS02004856         8.064        15.289         0.167         0.011         0.077
  HS02004802HS02004478       102.881       186.877         5.162         0.575         3.055
  HS02004478WS02006287       268.238       498.500         9.363         0.945         5.224
  HS02004817HS02004807        86.884       154.853         4.956         0.568         2.972
  HS02004807HS02004802       103.107       187.231         5.194         0.580         3.075
  YS02001759YS02001757       318.673       578.618         6.406         0.444         3.132
  YS02001762YS02001759       157.970       288.432         3.365         0.237         1.667
  YS02001765YS02001762       158.595       290.221         3.401         0.241         1.688
  YS02001770YS02001767       158.391       291.241         3.222         0.213         1.567
  YS02001774YS02001770       195.498       374.648         3.798         0.251         1.836
  YS02001779YS02001774       194.749       373.115         3.890         0.265         1.900
  YS02001649YS02001757       330.742       591.121         6.693         0.463         3.222
  YS02001767YS02001765       159.389       292.127         3.435         0.243         1.707
  YS02006561YS02001783       948.732      1740.922        20.062         1.504        10.008
  YS02001783YS02001784       948.596      1740.700        20.058         1.504        10.006
  YS02001784YS02001785       955.909      1752.419        20.770         1.593        10.452
  YS02001788YS02001790       956.475      1753.337        20.841         1.602        10.497
  YS02001790YS02001791       957.520      1755.068        20.941         1.615        10.560
  YS02001791YS02001793       957.421      1754.880        20.937         1.614        10.557
  YS02001910YS02001907       329.997       598.902         8.219         0.641         4.245
  YS02001786YS02001788       956.094      1752.737        20.797         1.597        10.469
  YS02001915YS02001910       330.082       599.037         8.175         0.634         4.215
  YS02001918YS02001915       156.497       271.449         4.574         0.427         2.492
  YS02001923YS02001920       136.699       239.884         2.624         0.182         1.272
  YS02001926YS02001923       136.428       239.484         2.587         0.178         1.248
  YS02001929YS02001926       136.225       239.149         2.556         0.174         1.229
  YS02001920YS02001918       156.555       271.641         4.543         0.422         2.472
  YS02001629YS02163301       103.501       183.393         2.171         0.140         1.012
  YS02001619YS02001622       146.394       262.929         3.031         0.197         1.414
  YS02001622YS02001625       145.238       261.103         3.003         0.195         1.401
  YS02001625YS02001629       104.590       185.196         2.195         0.142         1.023
  YS02163301YS02001633       103.228       182.933         2.164         0.140         1.009
  YS02163601YS02164001       362.022       646.171         7.115         0.502         3.403
  YS02164001YS02001641       361.535       645.352         7.096         0.500         3.392
  YS02001641YS02001644       361.782       645.697         7.095         0.500         3.391
  YS02001647YS02001649       385.193       695.712         7.704         0.534         3.688
  YS02006553YS02006556       670.286      1224.647        14.465         1.111         7.290
  YS02006556YS02006558       670.191      1224.456        14.432         1.106         7.269
  YSB6556YSB1171              21.955        42.200         0.451         0.038         0.229
  YS02001907YS02006553       670.426      1224.929        14.479         1.113         7.299
  YS02006558YS02006561       948.792      1741.026        20.063         1.504        10.009
  YS02001633YS02163601       362.718       647.250         7.095         0.498         3.387
  YS02001644YS02001647       392.064       707.785         7.812         0.542         3.737
  YS02001745YS02001748       210.962       387.870         4.821         0.342         2.419
  YS02001748YS02001751       208.922       384.002         4.864         0.351         2.455
  YS02001751YS02001754       207.967       382.441         4.846         0.351         2.447
  YS02001754YS02001757       208.723       383.579         5.009         0.373         2.553
  YS02001882YS02001884         2.899         5.007         0.058         0.005         0.029
  YS02001884YS02001887         6.689        11.838         0.131         0.010         0.065
  YS02001890YS02001895       389.444       720.610         7.189         0.539         3.508
  YS02001895YS02001898       389.247       720.329         7.182         0.539         3.504
  YS02001898YS02001901       389.022       719.939         7.177         0.538         3.502
  YS02001901YS02001904       388.859       719.703         7.184         0.540         3.507
  YS02001904YS02001907       389.071       720.024         7.237         0.547         3.541
  YS02001887YS02001890       390.248       721.812         7.243         0.546         3.541
  YS02001652YS02001649       152.853       279.966         3.113         0.224         1.460
  YS02001655YS02001652       153.348       280.775         3.127         0.225         1.466
  YS02001658YS02001655       152.780       279.876         3.038         0.213         1.409
  YS02001661YS02001658       156.856       287.185         3.120         0.219         1.447
  YS02001664YS02001661       177.470       321.358         3.580         0.250         1.657
  YSB1154YSB6556              21.535        41.531         0.403         0.032         0.199
  YSB1174YSB1171              14.653        28.289         0.298         0.024         0.149
  YSB1171HS02004479           38.105        72.909         0.888         0.079         0.465
  HS02004881HS02006253        42.312        82.604         0.932         0.068         0.459
  YS02001793JiankangQianchi       959.851      1758.761        20.996         1.619        10.587
  YS02001757CaochengTiaoxuchi       547.886       982.797        11.692         0.843         5.766
  WSF200WS02003060           763.977      1406.539        20.440         1.803        10.811
  1                         2302.782      3933.338       150.721        17.802        91.394
  CC-Pump-1                  161.057       291.648         3.405         0.248         1.680
  CC-Pump-2                   81.894       148.521         1.732         0.127         0.855
  JK-Pump-1                  247.087       453.917         5.384         0.416         2.714
  JK-Pump-2                  498.639       924.637        10.395         0.780         5.178
  XR-Pump-1                  380.163       625.022        31.948         3.919        19.747
  XR-Pump-2                  357.868       589.341        29.821         3.653        18.419
  XR-Pump-3                  335.643       553.763        27.705         3.389        17.099
  XR-Pump-4                  335.643       553.763        27.705         3.389        17.099
  

  Analysis begun on:  Thu Jul 15 22:07:50 2021
  Analysis ended on:  Thu Jul 15 22:07:54 2021
  Total elapsed time: 00:00:04