
  EPA STORM WATER MANAGEMENT MODEL - VERSION 5.1 (Build 5.3.0.dev0)
  --------------------------------------------------------------

  WARNING 04: minimum elevation drop used for Conduit WS02004404WS02004405
  WARNING 03: negative offset ignored for Link YS02001904YS02001907
  
  *********************************************************
  NOTE: The summary statistics displayed in this report are
  based on results found at every computational time step,  
  not just on results from each reporting time step.
  *********************************************************
  
  ****************
  Analysis Options
  ****************
  Flow Units ............... LPS
  Process Models:
    Rainfall/Runoff ........ YES
    RDII ................... NO
    Snowmelt ............... NO
    Groundwater ............ NO
    Flow Routing ........... YES
    Ponding Allowed ........ NO
    Water Quality .......... YES
  Infiltration Method ...... HORTON
  Flow Routing Method ...... DYNWAVE
  Surcharge Method ......... EXTRAN
  Starting Date ............ 08/28/2015 08:00:00
  Ending Date .............. 08/28/2015 15:50:00
  Antecedent Dry Days ...... 8.0
  Report Time Step ......... 00:01:00
  Wet Time Step ............ 00:01:00
  Dry Time Step ............ 00:01:00
  Routing Time Step ........ 5.00 sec
  Variable Time Step ....... YES
  Maximum Trials ........... 8
  Number of Threads ........ 4
  Head Tolerance ........... 0.001500 m
  
  
  **************************        Volume         Depth
  Runoff Quantity Continuity     hectare-m            mm
  **************************     ---------       -------
  Total Precipitation ......         5.556        12.164
  Evaporation Loss .........         0.000         0.000
  Infiltration Loss ........         1.002         2.194
  Surface Runoff ...........         3.688         8.075
  Final Storage ............         0.866         1.897
  Continuity Error (%) .....        -0.019
  
  
  **************************           COD            SS            TN            TP         NH4-N
  Runoff Quality Continuity             kg            kg            kg            kg            kg
  **************************    ----------    ----------    ----------    ----------    ----------
  Initial Buildup ..........     41378.656     70582.865      1804.177       168.684      1032.807
  Surface Buildup ..........        19.275        34.271         2.335         0.213         1.362
  Wet Deposition ...........         0.000         0.000         0.000         0.000         0.000
  Sweeping Removal .........         0.000         0.000         0.000         0.000         0.000
  Infiltration Loss ........        84.023       157.502         1.599         0.111         0.761
  BMP Removal ..............         0.000         0.000         0.000         0.000         0.000
  Surface Runoff ...........      3122.074      5752.154        60.620         4.098        28.771
  Remaining Buildup ........     38190.779     64705.500      1744.271       164.686      1004.628
  Continuity Error (%) .....         0.003         0.003         0.001         0.001         0.001
  
  
  **************************        Volume        Volume
  Flow Routing Continuity        hectare-m      10^6 ltr
  **************************     ---------     ---------
  Dry Weather Inflow .......         0.616         6.165
  Wet Weather Inflow .......         3.687        36.871
  Groundwater Inflow .......         0.000         0.000
  RDII Inflow ..............         0.000         0.000
  External Inflow ..........         0.102         1.024
  External Outflow .........         1.849        18.488
  Flooding Loss ............         2.157        21.570
  Evaporation Loss .........         0.000         0.000
  Exfiltration Loss ........         0.000         0.000
  Initial Stored Volume ....         0.076         0.761
  Final Stored Volume ......         0.626         6.257
  Continuity Error (%) .....        -3.335
  
  
  **************************           COD            SS            TN            TP         NH4-N
  Quality Routing Continuity            kg            kg            kg            kg            kg
  **************************    ----------    ----------    ----------    ----------    ----------
  Dry Weather Inflow .......      1541.201      2465.922       147.955        18.494        92.472
  Wet Weather Inflow .......      3121.366      5750.959        60.605         4.097        28.764
  Groundwater Inflow .......         0.000         0.000         0.000         0.000         0.000
  RDII Inflow ..............         0.000         0.000         0.000         0.000         0.000
  External Inflow ..........       183.418       293.469        17.608         2.201        11.005
  External Outflow .........      2200.426      3748.412       148.622        17.654        90.368
  Flooding Loss ............      1919.516      3513.792        49.541         4.293        26.012
  Exfiltration Loss ........         0.000         0.000         0.000         0.000         0.000
  Mass Reacted .............         0.000         0.000         0.000         0.000         0.000
  Initial Stored Mass ......         0.000         0.000         0.000         0.000         0.000
  Final Stored Mass ........       538.607       925.084        23.509         2.495        13.581
  Continuity Error (%) .....         3.868         3.796         1.988         1.414         1.724
  
  
  *************************
  Highest Continuity Errors
  *************************
  Node JK-storage (-15.02%)
  Node HS02004842 (14.53%)
  Node YS02001884 (9.49%)
  Node YSB1171 (2.74%)
  Node HS02004817 (2.73%)
  
  
  ***************************
  Time-Step Critical Elements
  ***************************
  Link WS02006252WS02006251 (56.55%)
  Link WS02006280WS02006229 (11.49%)
  Link WS02006238WS02006235 (8.94%)
  Link YS02001793JiankangQianchi (4.82%)
  Link YS02006556YS02006558 (4.31%)
  
  
  ********************************
  Highest Flow Instability Indexes
  ********************************
  Link WS02006113WS02006111 (47)
  Link YS02163601YS02164001 (40)
  Link YS02163301YS02001633 (40)
  Link YS02001629YS02163301 (40)
  Link YS02001619YS02001622 (39)
  
  
  *************************
  Routing Time Step Summary
  *************************
  Minimum Time Step           :     0.05 sec
  Average Time Step           :     1.31 sec
  Maximum Time Step           :     5.00 sec
  Percent in Steady State     :    -0.00
  Average Iterations per Step :     4.42
  Percent Not Converging      :    20.92
  
  
  ***************************
  Subcatchment Runoff Summary
  ***************************
  
  ------------------------------------------------------------------------------------------------------------------------------
                            Total      Total      Total      Total     Imperv       Perv      Total       Total     Peak  Runoff
                           Precip      Runon       Evap      Infil     Runoff     Runoff     Runoff      Runoff   Runoff   Coeff
  Subcatchment                 mm         mm         mm         mm         mm         mm         mm    10^6 ltr      LPS
  ------------------------------------------------------------------------------------------------------------------------------
  sub0                      12.16       0.00       0.00       0.65      11.27       0.20      11.47        0.01     1.99   0.943
  sub1                      12.16       0.00       0.00       1.12      10.73       0.22      10.95        0.07    14.96   0.900
  sub2                      12.16       0.00       0.00       4.23       7.58       0.27       7.85        0.07    15.08   0.646
  sub3                      12.16       0.00       0.00       4.29       7.54       0.21       7.75        0.17    34.61   0.637
  sub4                      12.16       0.00       0.00       1.19      10.57       0.14      10.71        0.22    42.34   0.881
  sub5                      12.16       0.00       0.00       0.69      11.21       0.16      11.38        0.13    26.18   0.935
  sub7                      12.16       0.00       0.00       0.88      11.01       0.22      11.22        0.04     7.95   0.923
  sub8                      12.16       0.00       0.00       0.89      11.00       0.21      11.20        0.07    14.89   0.921
  sub9                      12.16       0.00       0.00       0.89      10.99       0.21      11.20        0.05    11.18   0.921
  sub10                     12.16       0.00       0.00       0.79      11.10       0.18      11.28        0.12    25.49   0.928
  sub11                     12.16       0.00       0.00       0.78      11.12       0.19      11.31        0.13    27.35   0.930
  sub12                     12.16       0.00       0.00       1.27      10.53       0.31      10.85        0.09    20.52   0.892
  sub14                     12.16       0.00       0.00       0.89      10.99       0.20      11.20        0.11    22.08   0.920
  sub15                     12.16       0.00       0.00       3.28       8.45       0.37       8.82        0.15    32.49   0.725
  sub16                     12.16       0.00       0.00       3.51       8.11       0.50       8.61        0.09    20.36   0.708
  sub17                     12.16       0.00       0.00       3.41       8.23       0.48       8.71        0.07    16.72   0.716
  sub22                     12.16       0.00       0.00       4.80       6.89       0.43       7.32        0.46   102.62   0.602
  sub23                     12.16       0.00       0.00       4.05       7.62       0.45       8.07        0.38    85.35   0.663
  sub60                     12.16       0.00       0.00       1.42       8.82       0.04       8.86        2.69   336.84   0.729
  sub61                     12.16       0.00       0.00       2.01       8.94       0.06       9.00        2.78   399.45   0.740
  sub62                     12.16       0.00       0.00       0.92       9.73       0.05       9.78        3.01   415.79   0.804
  sub63                     12.16       0.00       0.00       3.46       7.82       0.06       7.88        2.39   361.21   0.648
  sub64                     12.16       0.00       0.00       1.78       8.47       0.04       8.51        2.59   320.97   0.699
  sub65                     12.16       0.00       0.00       1.54       8.61       0.04       8.65        2.66   326.54   0.711
  sub66                     12.16       0.00       0.00       3.49       7.26       0.04       7.30        2.24   290.53   0.600
  sub67                     12.16       0.00       0.00       0.91      10.24       0.07      10.31        3.18   494.23   0.848
  sub68                     12.16       0.00       0.00       1.64       9.40       0.06       9.46        2.91   432.52   0.778
  sub69                     12.16       0.00       0.00       1.73       9.72       0.09       9.82        2.29   383.95   0.807
  sub70                     12.16      10.02       0.00       6.98      13.09       0.56      13.65        3.12   394.93   0.615
  sub71                     12.16       0.00       0.00       0.93       9.48       0.05       9.53        2.25   296.34   0.783
  sub72                     12.16       0.00       0.00       0.83       7.62       0.02       7.64        1.56   151.13   0.628
  1                         12.16      13.29       0.00       1.37      14.64       3.94      18.57        4.36   399.24   0.730
  2                         12.16       0.00       0.00       3.02       2.89       1.65       4.55        1.82   245.52   0.374
  
  
  ****************************
  Subcatchment Washoff Summary
  ****************************
  
  ------------------------------------------------------------------------------------------
                                 COD            SS            TN            TP         NH4-N
  Subcatchment                    kg            kg            kg            kg            kg
  ------------------------------------------------------------------------------------------
  sub0                         2.176         4.147         0.037         0.003         0.018
  sub1                         9.268        18.138         0.173         0.012         0.083
  sub2                         5.563        10.570         0.119         0.008         0.054
  sub3                        13.747        25.918         0.288         0.019         0.132
  sub4                        21.530        42.606         0.429         0.026         0.205
  sub5                        21.300        41.103         0.378         0.029         0.183
  sub7                         4.748         9.424         0.090         0.006         0.043
  sub8                         7.142        14.500         0.143         0.008         0.069
  sub9                         6.100        12.212         0.118         0.007         0.057
  sub10                       17.532        34.266         0.321         0.023         0.155
  sub11                       17.086        33.770         0.320         0.022         0.154
  sub12                       14.392        27.890         0.260         0.019         0.125
  sub14                       13.021        25.823         0.247         0.016         0.119
  sub15                       16.182        30.744         0.313         0.023         0.146
  sub16                       10.318        19.555         0.197         0.015         0.092
  sub17                        9.471        17.789         0.175         0.014         0.082
  sub22                       48.821        90.813         0.932         0.070         0.434
  sub23                       29.138        56.181         0.627         0.041         0.287
  sub60                      203.703       376.194         4.083         0.248         1.956
  sub61                      251.300       461.579         4.699         0.320         2.261
  sub62                      262.762       491.326         5.157         0.324         2.474
  sub63                      185.047       334.594         3.739         0.261         1.731
  sub64                      253.867       452.095         4.687         0.339         2.235
  sub65                      260.106       465.192         4.834         0.344         2.309
  sub66                      146.558       263.078         3.037         0.197         1.417
  sub67                      388.205       718.566         6.963         0.510         3.363
  sub68                      276.714       513.393         5.318         0.356         2.539
  sub69                      247.676       464.012         4.658         0.325         2.225
  sub70                      413.256       778.342         8.287         0.572         3.877
  sub71                      173.740       327.842         3.597         0.206         1.720
  sub72                      136.329       239.316         2.558         0.174         1.230
  1                          280.724       531.718         5.751         0.398         2.660
  2                           35.485        61.812         1.030         0.062         0.437
  ------------------------------------------------------------------------------------------
  System                    3783.006      6994.507        73.566         4.996        34.873
  
  
  ******************
  Node Depth Summary
  ******************
  
  ---------------------------------------------------------------------------------
                                 Average  Maximum  Maximum  Time of Max    Reported
                                   Depth    Depth      HGL   Occurrence   Max Depth
  Node                 Type       Meters   Meters   Meters  days hr:min      Meters
  ---------------------------------------------------------------------------------
  WS02001211           JUNCTION     0.77     0.82     5.66     0  03:13        0.82
  WS02001212           JUNCTION     0.47     0.54     5.61     0  03:12        0.54
  WS02001213           JUNCTION     0.71     0.81     5.57     0  03:11        0.81
  WS02003069           JUNCTION     0.49     0.66     5.25     0  03:11        0.66
  WS02003072           JUNCTION     0.56     0.71     5.08     0  03:11        0.71
  WS02003073           JUNCTION     0.34     0.45     4.51     0  03:12        0.45
  WS02003060           JUNCTION     0.44     0.59     5.52     0  03:10        0.59
  WS02003066           JUNCTION     0.23     0.35     5.91     0  03:09        0.35
  WS02003059           JUNCTION     0.76     0.87     5.55     0  03:11        0.87
  WS02003067           JUNCTION     0.57     0.78     6.10     0  03:09        0.78
  WS02004401           JUNCTION     0.68     1.09     7.09     0  03:07        1.09
  WS02004402           JUNCTION     0.71     1.09     7.05     0  03:07        1.09
  WS02004403           JUNCTION     0.73     1.09     7.02     0  03:07        1.08
  WS02004404           JUNCTION     0.80     1.14     6.99     0  03:08        1.13
  WS02004406           JUNCTION     0.81     1.09     6.92     0  03:07        1.09
  WS02004409           JUNCTION     0.49     0.83     6.60     0  03:09        0.83
  WS02004410           JUNCTION     0.51     0.83     6.55     0  03:09        0.83
  WS02004411           JUNCTION     0.53     0.83     6.51     0  03:09        0.83
  WS02004412           JUNCTION     0.54     0.82     6.46     0  03:09        0.82
  WS02004413           JUNCTION     0.70     0.96     6.43     0  03:09        0.96
  WS02004405           JUNCTION     0.80     1.12     6.97     0  03:07        1.12
  WS02006109           JUNCTION     0.76     1.24     7.85     0  03:06        1.22
  WS02006110           JUNCTION     0.75     1.09     7.68     0  03:06        1.09
  WS02006111           JUNCTION     0.23     0.56     7.27     0  03:07        0.56
  WS02006112           JUNCTION     0.85     1.35     7.23     0  03:07        1.35
  WS02006113           JUNCTION     0.34     0.59     7.48     0  03:07        0.59
  WS02006115           JUNCTION     0.57     1.03     7.17     0  03:06        1.03
  WS02006116           JUNCTION     0.65     1.09     7.13     0  03:07        1.09
  WS02006230           JUNCTION     0.75     1.44     8.18     0  03:06        1.42
  WS02006231           JUNCTION     0.50     1.14     8.27     0  03:06        1.14
  WS02006232           JUNCTION     0.63     1.30     8.34     0  03:06        1.28
  WS02006234           JUNCTION     0.56     1.26     8.42     0  03:06        1.26
  WS02006235           JUNCTION     0.59     1.32     8.49     0  03:06        1.31
  WS02006238           JUNCTION     0.61     1.35     8.49     0  03:06        1.33
  WS02006240           JUNCTION     0.50     1.25     8.54     0  03:05        1.24
  WS02006242           JUNCTION     0.55     1.31     8.58     0  03:05        1.30
  WS02006243           JUNCTION     0.42     1.34     8.76     0  07:11        1.18
  WS02006245           JUNCTION     0.39     1.18     8.67     0  07:11        1.15
  WS02006247           JUNCTION     0.40     1.18     8.68     0  05:02        1.15
  WS02006248           JUNCTION     0.34     1.10     8.69     0  05:02        1.09
  WS02006249           JUNCTION     0.36     1.09     8.69     0  03:05        1.09
  WS02006239           JUNCTION     0.56     1.31     8.52     0  03:05        1.29
  WS02006251           JUNCTION     0.34     1.27     8.94     0  03:05        1.14
  WS02006252           JUNCTION     0.22     0.74     8.98     0  03:05        0.70
  WS02006253           JUNCTION     0.37     1.46     9.11     0  04:23        1.17
  WS02006256           JUNCTION     1.72     2.35     9.28     0  00:32        2.35
  WS02004138           JUNCTION     0.19     0.20     7.45     0  00:00        0.19
  WS02004139           JUNCTION     0.71     0.77     5.68     0  03:13        0.76
  WS02004407           JUNCTION     0.22     0.36     6.67     0  03:08        0.36
  WS02006228           JUNCTION     0.77     1.35     8.00     0  03:06        1.35
  WS02006229           JUNCTION     0.75     1.39     8.08     0  03:06        1.39
  WS02006280           JUNCTION     0.07     0.20     8.47     0  03:02        0.20
  WS02006284           JUNCTION     0.37     0.56     8.96     0  03:02        0.56
  WS02006287           JUNCTION     0.10     0.30     9.25     0  03:01        0.30
  WSF200               JUNCTION     0.22     0.39     5.62     0  03:09        0.39
  HS02004901           JUNCTION     0.13     0.29    10.12     0  03:01        0.29
  HS02004881           JUNCTION     0.01     0.04     9.07     0  03:01        0.04
  HS02004876           JUNCTION     0.04     0.12     9.15     0  03:01        0.12
  HS02004870           JUNCTION     0.02     0.07     9.35     0  03:01        0.07
  HS02004862           JUNCTION     0.02     0.08     9.46     0  03:01        0.08
  HS02004856           JUNCTION     0.08     0.13     9.55     0  03:01        0.13
  HS02004852           JUNCTION     0.01     0.05     9.56     0  03:01        0.05
  HS02004848           JUNCTION     0.01     0.05     9.65     0  03:01        0.05
  HS02004842           JUNCTION     0.34     0.38     9.65     0  03:01        0.38
  HS02004837           JUNCTION     0.03     0.07     9.65     0  03:01        0.07
  HS02004830           JUNCTION     0.04     0.08     9.55     0  03:01        0.08
  HS02004824           JUNCTION     0.02     0.06     9.47     0  03:01        0.06
  HS02004817           JUNCTION     0.44     0.61     9.45     0  03:01        0.61
  HS02004807           JUNCTION     0.13     0.28     9.45     0  03:01        0.28
  HS02004802           JUNCTION     0.16     0.31     9.44     0  03:01        0.31
  HS02004799           JUNCTION     0.12     0.35     9.56     0  03:01        0.35
  HS02004792           JUNCTION     0.03     0.15     9.67     0  03:01        0.15
  HS02004788           JUNCTION     0.03     0.11    10.01     0  03:01        0.11
  HS02004785           JUNCTION     0.05     0.18    10.09     0  03:01        0.18
  HS02004777           JUNCTION     0.15     0.31    10.11     0  03:01        0.31
  HS02004770           JUNCTION     0.12     0.29    10.12     0  03:01        0.29
  HS02004480           JUNCTION     0.08     0.28     9.52     0  03:01        0.28
  HS02004479           JUNCTION     0.12     0.32     9.52     0  03:01        0.32
  HS02004478           JUNCTION     0.06     0.20     9.42     0  03:01        0.20
  YS02001745           JUNCTION     0.73     0.93     8.45     0  03:01        0.93
  YS02001748           JUNCTION     1.13     1.45     8.53     0  02:27        1.36
  YS02001751           JUNCTION     1.31     1.58     8.46     0  02:17        1.56
  YS02001754           JUNCTION     1.56     1.83     8.44     0  03:29        1.82
  YS02001762           JUNCTION     1.76     2.05     8.45     0  03:32        2.02
  YS02001765           JUNCTION     1.71     2.00     8.45     0  03:32        1.97
  YS02001767           JUNCTION     1.67     1.95     8.44     0  03:32        1.93
  YS02001770           JUNCTION     1.67     1.92     8.42     0  03:32        1.92
  YS02001774           JUNCTION     1.74     1.98     8.40     0  02:58        1.97
  YS02001779           JUNCTION     1.48     1.68     8.37     0  02:37        1.68
  YS02001882           JUNCTION     0.52     1.62     8.33     0  03:00        1.61
  YS02001884           JUNCTION     0.62     1.72     8.34     0  02:58        1.71
  YS02001759           JUNCTION     1.79     2.09     8.45     0  03:32        2.06
  YS02001887           JUNCTION     0.70     1.80     8.34     0  03:00        1.79
  YS02001890           JUNCTION     0.73     1.81     8.32     0  02:53        1.81
  YS02001898           JUNCTION     0.49     1.56     8.29     0  03:00        1.55
  YS02001901           JUNCTION     0.61     1.68     8.29     0  03:00        1.66
  YS02001904           JUNCTION     0.59     1.64     8.27     0  02:59        1.63
  YS02001907           JUNCTION     0.92     1.96     8.25     0  02:46        1.96
  YS02001910           JUNCTION     0.71     1.77     8.28     0  02:47        1.77
  YS02001915           JUNCTION     0.51     1.58     8.29     0  02:48        1.56
  YS02001918           JUNCTION     0.26     1.23     8.30     0  02:48        1.23
  YS02001619           JUNCTION     1.27     1.61     8.54     0  02:26        1.47
  YS02001629           JUNCTION     1.62     1.85     8.40     0  02:29        1.84
  YS02001641           JUNCTION     1.72     1.94     8.37     0  02:58        1.93
  YS02001644           JUNCTION     1.72     1.92     8.35     0  02:34        1.92
  YS02001652           JUNCTION     1.57     2.16     8.76     0  02:46        1.90
  YS02001655           JUNCTION     1.34     2.20     9.05     0  02:46        1.72
  YS02001920           JUNCTION     0.36     1.31     8.32     0  02:48        1.30
  YS02001923           JUNCTION     0.21     1.05     8.31     0  02:48        1.05
  YS02001926           JUNCTION     0.27     0.88     8.32     0  02:48        0.88
  YS02001929           JUNCTION     0.15     0.64     8.33     0  02:48        0.64
  YS02001658           JUNCTION     1.07     2.25     9.39     0  02:46        1.51
  YS02001661           JUNCTION     0.84     2.46     9.86     0  02:46        1.30
  YS02001664           JUNCTION     0.37     0.57     8.49     0  02:45        0.56
  YS02001622           JUNCTION     1.29     1.62     8.52     0  02:26        1.49
  YS02001633           JUNCTION     1.71     1.94     8.40     0  02:53        1.94
  YS02001649           JUNCTION     1.77     2.05     8.44     0  02:42        2.04
  YS02001757           JUNCTION     1.89     2.18     8.44     0  03:32        2.16
  YS02001895           JUNCTION     0.49     1.56     8.31     0  03:00        1.55
  YS02001625           JUNCTION     1.57     1.78     8.38     0  02:29        1.78
  YS02163301           JUNCTION     1.65     1.88     8.40     0  02:59        1.88
  YS02163601           JUNCTION     1.76     1.99     8.38     0  02:42        1.98
  YS02164001           JUNCTION     1.70     1.92     8.37     0  02:56        1.91
  YS02001647           JUNCTION     1.55     1.80     8.41     0  02:45        1.79
  YSB1154              JUNCTION     0.26     0.47     9.52     0  03:01        0.47
  YSB6556              JUNCTION     0.15     0.35     9.52     0  03:01        0.35
  YSB1174              JUNCTION     0.21     0.41     9.52     0  03:01        0.41
  YSB1171              JUNCTION     0.41     0.62     9.52     0  03:01        0.62
  YS02006553           JUNCTION     0.92     1.97     8.25     0  03:00        1.96
  YS02006561           JUNCTION     0.29     1.06     7.72     0  03:00        1.05
  YS02006556           JUNCTION     0.89     1.92     8.23     0  02:59        1.91
  YS02006558           JUNCTION     0.93     1.96     8.23     0  02:59        1.96
  YS02001783           JUNCTION     0.50     1.64     7.78     0  02:26        1.44
  YS02001784           JUNCTION     0.52     1.46     7.53     0  02:26        1.38
  YS02001786           JUNCTION     0.46     1.32     7.35     0  02:26        1.21
  YS02001788           JUNCTION     0.38     1.12     7.09     0  02:26        1.08
  YS02001790           JUNCTION     0.49     1.85     7.49     0  02:25        1.24
  YS02001791           JUNCTION     0.43     2.06     7.53     0  02:25        1.23
  YS02001793           JUNCTION     0.57     2.06     6.89     0  02:25        1.80
  WSC                  OUTFALL      0.34     0.45     1.12     0  03:12        0.44
  JK-storage           STORAGE      2.31     5.80     6.60     0  02:26        5.80
  CC-storage           STORAGE      1.15     1.42     8.42     0  03:03        1.42
  XR-storage           STORAGE      6.49     7.72     5.72     0  02:55        7.72
  
  
  *******************
  Node Inflow Summary
  *******************
  
  -------------------------------------------------------------------------------------------------
                                  Maximum  Maximum                  Lateral       Total        Flow
                                  Lateral    Total  Time of Max      Inflow      Inflow     Balance
                                   Inflow   Inflow   Occurrence      Volume      Volume       Error
  Node                 Type           LPS      LPS  days hr:min    10^6 ltr    10^6 ltr     Percent
  -------------------------------------------------------------------------------------------------
  WS02001211           JUNCTION      7.35   390.25     0  03:25       0.207        10.1       0.395
  WS02001212           JUNCTION      0.00   393.10     0  03:24           0          10       0.233
  WS02001213           JUNCTION      0.00   395.74     0  03:25           0          10       0.276
  WS02003069           JUNCTION      0.32  1170.04     0  03:10     0.00902        18.5       0.163
  WS02003072           JUNCTION      0.00  1170.00     0  03:11           0        18.5       0.202
  WS02003073           JUNCTION      1.82  1172.11     0  03:12      0.0514        18.5       0.230
  WS02003060           JUNCTION     16.53  1169.42     0  03:10       0.466        18.6       0.154
  WS02003066           JUNCTION      0.00   775.60     0  03:09           0        8.15       0.042
  WS02003059           JUNCTION      0.00   399.26     0  03:24           0        9.99       0.390
  WS02003067           JUNCTION      0.00   775.20     0  03:09           0        8.16       0.092
  WS02004401           JUNCTION      0.00   780.48     0  03:08           0        8.34       0.188
  WS02004402           JUNCTION      0.00   780.77     0  03:07           0        8.32       0.184
  WS02004403           JUNCTION      0.00   780.95     0  03:07           0        8.31       0.172
  WS02004404           JUNCTION      0.16   781.51     0  03:07     0.00457         8.3       0.135
  WS02004406           JUNCTION      0.00   781.24     0  03:08           0        8.27       0.332
  WS02004409           JUNCTION      0.00   780.60     0  03:08           0        8.24       0.130
  WS02004410           JUNCTION      0.00   777.96     0  03:08           0        8.23       0.157
  WS02004411           JUNCTION      0.00   776.06     0  03:08           0        8.21       0.169
  WS02004412           JUNCTION      0.00   775.26     0  03:09           0         8.2       0.192
  WS02004413           JUNCTION      0.00   775.14     0  03:09           0        8.19       0.298
  WS02004405           JUNCTION      0.04   782.01     0  03:07     0.00107        8.29       0.205
  WS02006109           JUNCTION      1.23   781.58     0  03:06      0.0347        8.34       0.134
  WS02006110           JUNCTION      0.00   781.76     0  03:06           0        8.33       0.158
  WS02006111           JUNCTION      0.00   773.07     0  03:06           0        8.31       0.023
  WS02006112           JUNCTION     16.72   779.79     0  03:07      0.0747        8.39       0.286
  WS02006113           JUNCTION      0.00   781.62     0  03:06           0        8.32       0.053
  WS02006115           JUNCTION      0.00   779.84     0  03:07           0        8.36       0.152
  WS02006116           JUNCTION      0.00   780.09     0  03:07           0        8.35       0.140
  WS02006230           JUNCTION     10.28   526.19     0  04:24        0.29        6.16       0.113
  WS02006231           JUNCTION      0.00   515.70     0  04:24           0        5.87       0.005
  WS02006232           JUNCTION      0.00   515.74     0  04:24           0        5.88       0.149
  WS02006234           JUNCTION      0.00   515.82     0  04:24           0        5.88       0.001
  WS02006235           JUNCTION      0.00   516.53     0  04:24           0        5.97       0.080
  WS02006238           JUNCTION      0.00   349.60     0  04:30           0        2.43       0.011
  WS02006240           JUNCTION      0.00   337.22     0  06:22           0        2.34       0.081
  WS02006242           JUNCTION      0.00   346.72     0  06:21           0        2.31       0.092
  WS02006243           JUNCTION      0.00   356.04     0  06:21           0        2.29      -0.027
  WS02006245           JUNCTION      0.00   361.04     0  06:21           0        2.29       0.319
  WS02006247           JUNCTION      0.00   365.72     0  06:21           0        2.29       0.038
  WS02006248           JUNCTION      0.00   370.23     0  06:20           0        2.28      -0.114
  WS02006249           JUNCTION      0.00   447.63     0  03:10           0        2.34       0.149
  WS02006239           JUNCTION      0.00   345.18     0  04:30           0        2.38      -0.124
  WS02006251           JUNCTION      0.08   445.54     0  03:10     0.00217         2.4      -0.024
  WS02006252           JUNCTION      0.00   399.97     0  03:10           0        1.92       0.006
  WS02006253           JUNCTION      1.99   126.97     0  04:21     0.00928       0.473      -0.041
  WS02006256           JUNCTION      0.00   983.00     0  02:00           0        10.3       0.016
  WS02004138           JUNCTION      0.00   380.00     0  00:00           0        9.92       0.066
  WS02004139           JUNCTION      0.32   394.45     0  00:00     0.00905        9.92       0.455
  WS02004407           JUNCTION      0.00   781.03     0  03:08           0        8.24       0.055
  WS02006228           JUNCTION      0.00   780.38     0  03:06           0        8.31       0.089
  WS02006229           JUNCTION      0.00   781.65     0  03:06           0        8.32       0.120
  WS02006280           JUNCTION      0.00   413.58     0  03:02           0        2.17       0.006
  WS02006284           JUNCTION      0.10   413.53     0  03:02      0.0027        2.17       0.041
  WS02006287           JUNCTION      0.00   413.19     0  03:01           0        2.17       0.033
  WSF200               JUNCTION      0.00   775.73     0  03:09           0        8.15       0.037
  HS02004901           JUNCTION     20.36    20.36     0  03:01      0.0901      0.0904       1.991
  HS02004881           JUNCTION      7.95    84.18     0  03:01      0.0378        0.41       0.074
  HS02004876           JUNCTION     14.96    76.75     0  03:01      0.0728       0.373       0.148
  HS02004870           JUNCTION     14.89    62.15     0  03:01      0.0716         0.3       0.037
  HS02004862           JUNCTION     15.28    47.68     0  03:01      0.0788       0.229       0.077
  HS02004856           JUNCTION     11.18    32.72     0  03:01      0.0539       0.152       0.963
  HS02004852           JUNCTION      0.00    21.94     0  03:01           0      0.0979       0.059
  HS02004848           JUNCTION     34.61    34.61     0  03:01       0.174       0.174       0.028
  HS02004842           JUNCTION      0.00    12.41     0  03:01           0      0.0895      16.998
  HS02004837           JUNCTION     31.84    43.95     0  03:01       0.303        0.38       0.214
  HS02004830           JUNCTION      0.15    43.85     0  03:01     0.00423        0.37       0.334
  HS02004824           JUNCTION     42.39    85.90     0  03:01       0.225       0.594       0.091
  HS02004817           JUNCTION      0.60    86.28     0  03:01      0.0169        0.61       2.809
  HS02004807           JUNCTION     27.35   112.31     0  03:01       0.131       0.726       0.605
  HS02004802           JUNCTION      0.00   111.36     0  03:01           0       0.723       0.548
  HS02004799           JUNCTION     22.08   258.92     0  03:01       0.107        1.24       0.223
  HS02004792           JUNCTION    102.90   238.00     0  03:01        0.47        1.14       0.036
  HS02004788           JUNCTION     34.16   135.93     0  03:01       0.199       0.669       0.058
  HS02004785           JUNCTION      0.15   103.52     0  03:01     0.00423       0.471       0.106
  HS02004777           JUNCTION      0.03   104.16     0  03:01    0.000846       0.472       1.115
  HS02004770           JUNCTION     85.35   105.11     0  03:01       0.385       0.473       0.659
  HS02004480           JUNCTION      0.00   302.42     0  03:01           0        1.46       0.077
  HS02004479           JUNCTION      0.00    44.91     0  03:02           0       0.232       0.317
  HS02004478           JUNCTION      0.00   413.05     0  03:01           0        2.17       0.014
  YS02001745           JUNCTION    336.84   389.50     0  02:26        2.69         2.7       0.423
  YS02001748           JUNCTION      0.04   554.17     0  02:26     0.00127        2.69       0.798
  YS02001751           JUNCTION      0.01   340.61     0  03:01     0.00031        2.65       0.898
  YS02001754           JUNCTION      0.26   340.83     0  03:01     0.00733        2.64       0.959
  YS02001762           JUNCTION      0.00   291.36     0  02:38           0           2       1.072
  YS02001765           JUNCTION      0.00   291.19     0  02:38           0           2       1.231
  YS02001767           JUNCTION      0.54   291.71     0  02:38      0.0151        2.02       1.789
  YS02001770           JUNCTION    415.94   604.72     0  03:04        3.01        3.63       0.874
  YS02001774           JUNCTION      0.00   604.78     0  03:04           0        2.22       1.136
  YS02001779           JUNCTION      0.01   604.82     0  03:04    0.000141        2.19       0.717
  YS02001882           JUNCTION      0.00    28.44     0  02:28           0      0.0271       9.456
  YS02001884           JUNCTION      0.00    57.24     0  02:28           0      0.0647      10.480
  YS02001759           JUNCTION    399.49   573.49     0  02:38        2.78        4.12       0.559
  YS02001887           JUNCTION    494.68   494.86     0  03:01        3.19        3.23       0.265
  YS02001890           JUNCTION      0.00   495.24     0  03:01           0        3.18       0.297
  YS02001898           JUNCTION      0.00   495.43     0  03:01           0        3.16       0.093
  YS02001901           JUNCTION      0.00   495.19     0  03:01           0        3.16       0.232
  YS02001904           JUNCTION      0.00   495.63     0  03:01           0        3.16       0.205
  YS02001907           JUNCTION      0.00   948.98     0  03:01           0        7.02       0.344
  YS02001910           JUNCTION      0.00   456.07     0  03:01           0        3.87       0.299
  YS02001915           JUNCTION    296.36   455.71     0  03:01        2.25        3.89       0.165
  YS02001918           JUNCTION      0.00   209.18     0  03:30           0        1.64       0.121
  YS02001619           JUNCTION    290.53   290.53     0  03:01        2.24        2.24       0.557
  YS02001629           JUNCTION      0.00   195.73     0  02:18           0        1.69       1.741
  YS02001641           JUNCTION      0.00   396.94     0  02:34           0        4.25       0.500
  YS02001644           JUNCTION    321.01  1395.74     0  03:01        2.59        10.7       0.254
  YS02001652           JUNCTION      0.00   370.10     0  03:01           0        2.34       1.013
  YS02001655           JUNCTION      0.15   369.82     0  03:01     0.00434        2.37       1.062
  YS02001920           JUNCTION      2.87   194.46     0  03:29      0.0809        1.64       0.180
  YS02001923           JUNCTION      0.04   170.92     0  02:49     0.00106        1.55       0.056
  YS02001926           JUNCTION      0.05   155.06     0  03:01     0.00147        1.56       0.210
  YS02001929           JUNCTION    151.13   151.13     0  03:01        1.56        1.56       0.037
  YS02001658           JUNCTION      0.00   595.29     0  02:23           0         2.4       0.891
  YS02001661           JUNCTION      0.00   622.94     0  02:46           0        2.72      -0.211
  YS02001664           JUNCTION    361.21   361.21     0  03:01        2.38        2.71       0.235
  YS02001622           JUNCTION      0.00   291.13     0  03:01           0        2.22       1.447
  YS02001633           JUNCTION    326.74   397.31     0  02:35        2.66        4.31       0.749
  YS02001649           JUNCTION      0.00   821.92     0  02:35           0        6.07       0.615
  YS02001757           JUNCTION      0.00  1576.49     0  02:35           0        8.44       1.102
  YS02001895           JUNCTION      0.00   495.00     0  03:01           0        3.17       0.166
  YS02001625           JUNCTION      0.00   290.65     0  03:01           0        2.19       1.800
  YS02163301           JUNCTION      0.00   200.32     0  02:27           0        1.67       1.469
  YS02163601           JUNCTION      0.11   397.84     0  02:35      0.0031        4.27       0.710
  YS02164001           JUNCTION      0.00   398.31     0  02:35           0        4.25       0.477
  YS02001647           JUNCTION      0.00   701.95     0  03:04           0         5.3       0.538
  YSB1154              JUNCTION     26.18    26.18     0  03:01       0.129        0.13       1.131
  YSB6556              JUNCTION      0.00    25.82     0  03:01           0        0.13       0.969
  YSB1174              JUNCTION     20.52    20.52     0  03:01      0.0948      0.0952       1.368
  YSB1171              JUNCTION      0.00    45.30     0  03:01           0       0.231       2.821
  YS02006553           JUNCTION      0.00   703.80     0  03:31           0         6.6       0.236
  YS02006561           JUNCTION      0.00  1023.64     0  02:47           0        9.47       0.007
  YS02006556           JUNCTION      0.00   704.13     0  03:31           0         6.6       0.168
  YS02006558           JUNCTION    433.40  1024.25     0  02:47        2.93        9.51       0.057
  YS02001783           JUNCTION      0.00  1023.61     0  02:47           0        9.47       0.024
  YS02001784           JUNCTION      1.06  1024.83     0  02:47      0.0299         9.5       0.037
  YS02001786           JUNCTION      0.06  1024.60     0  02:47     0.00159         9.5       0.037
  YS02001788           JUNCTION      0.07  1024.74     0  02:47       0.002         9.5       0.023
  YS02001790           JUNCTION      0.15  1024.83     0  02:47     0.00437         9.5       0.017
  YS02001791           JUNCTION      0.00  1024.76     0  02:47           0         9.5       0.008
  YS02001793           JUNCTION      0.00  1025.13     0  02:47           0         9.5      -0.017
  WSC                  OUTFALL       0.00  1172.67     0  03:12           0        18.5       0.000
  JK-storage           STORAGE       0.00  1024.88     0  02:47           0        9.65     -13.061
  CC-storage           STORAGE       0.00  1575.40     0  02:36           0        5.99       1.099
  XR-storage           STORAGE     844.76   844.76     0  03:01        11.8        12.4      -0.004
  
  
  **********************
  Node Surcharge Summary
  **********************
  
  Surcharging occurs when water rises above the top of the highest conduit.
  ---------------------------------------------------------------------
                                               Max. Height   Min. Depth
                                   Hours       Above Crown    Below Rim
  Node                 Type      Surcharged         Meters       Meters
  ---------------------------------------------------------------------
  WS02004401           JUNCTION        0.29          0.088        1.572
  WS02004402           JUNCTION        0.34          0.092        1.648
  WS02004403           JUNCTION        0.35          0.085        1.945
  WS02004404           JUNCTION        0.59          0.144        2.636
  WS02004406           JUNCTION        0.51          0.093        2.357
  WS02004405           JUNCTION        0.55          0.123        2.677
  WS02006109           JUNCTION        2.51          0.416        1.404
  WS02006110           JUNCTION        0.98          0.181        1.669
  WS02006112           JUNCTION        1.22          0.352        1.328
  WS02006115           JUNCTION        0.06          0.024        2.226
  WS02006116           JUNCTION        0.08          0.034        2.256
  WS02006230           JUNCTION        0.63          0.356        1.214
  WS02006231           JUNCTION        0.86          0.432        1.098
  WS02006232           JUNCTION        2.22          0.601        0.879
  WS02006234           JUNCTION        1.33          0.544        0.696
  WS02006235           JUNCTION        1.59          0.613        0.677
  WS02006238           JUNCTION        1.65          0.630        0.800
  WS02006240           JUNCTION        0.99          0.540        0.850
  WS02006242           JUNCTION        1.10          0.581        0.239
  WS02006243           JUNCTION        0.67          0.627        0.143
  WS02006245           JUNCTION        0.60          0.470        0.380
  WS02006247           JUNCTION        0.60          0.473        0.287
  WS02006248           JUNCTION        0.45          0.380        0.000
  WS02006249           JUNCTION        0.50          0.390        0.000
  WS02006239           JUNCTION        1.26          0.568        0.722
  WS02006251           JUNCTION        0.18          0.239        0.941
  WS02006252           JUNCTION        0.75          0.340        0.760
  WS02006253           JUNCTION        0.19          0.422        2.058
  WS02006256           JUNCTION        6.83          2.050        0.000
  WS02006228           JUNCTION        2.46          0.521        1.679
  YS02001748           JUNCTION        5.31          0.370        0.820
  YS02001751           JUNCTION        5.48          0.582        0.618
  YS02001754           JUNCTION        5.70          0.783        0.367
  YS02001762           JUNCTION        5.87          1.053        0.097
  YS02001765           JUNCTION        5.84          0.999        0.101
  YS02001767           JUNCTION        5.81          0.950        0.080
  YS02001770           JUNCTION        5.80          0.893        0.027
  YS02001774           JUNCTION        5.86          0.982        0.068
  YS02001779           JUNCTION        5.67          0.680        0.000
  YS02001882           JUNCTION        0.93          0.619        0.211
  YS02001884           JUNCTION        0.95          0.660        0.210
  YS02001759           JUNCTION        5.89          1.088        0.122
  YS02001887           JUNCTION        1.03          0.749        0.201
  YS02001890           JUNCTION        1.06          0.760        0.000
  YS02001898           JUNCTION        0.89          0.530        0.210
  YS02001901           JUNCTION        1.00          0.676        0.194
  YS02001904           JUNCTION        0.98          0.638        0.212
  YS02001907           JUNCTION        1.76          0.950        0.000
  YS02001910           JUNCTION        1.11          0.771        0.329
  YS02001915           JUNCTION        0.92          0.576        0.424
  YS02001918           JUNCTION        0.70          0.233        0.577
  YS02001619           JUNCTION        5.47          0.610        0.000
  YS02001629           JUNCTION        5.49          0.467        0.003
  YS02001641           JUNCTION        5.85          0.935        0.165
  YS02001644           JUNCTION        5.85          0.920        0.000
  YS02001652           JUNCTION        5.73          1.130        0.000
  YS02001655           JUNCTION        5.50          1.200        0.000
  YS02001920           JUNCTION        0.73          0.308        0.832
  YS02001658           JUNCTION        5.34          1.246        0.054
  YS02001661           JUNCTION        0.15          1.390        0.000
  YS02001622           JUNCTION        5.51          0.620        0.000
  YS02001633           JUNCTION        5.83          0.924        0.136
  YS02001649           JUNCTION        5.88          1.050        0.000
  YS02001757           JUNCTION        5.98          1.183        0.027
  YS02001895           JUNCTION        0.91          0.560        0.190
  YS02001625           JUNCTION        5.76          0.780        0.000
  YS02163301           JUNCTION        5.81          0.880        0.150
  YS02163601           JUNCTION        5.87          0.987        0.093
  YS02164001           JUNCTION        5.83          0.916        0.184
  YS02001647           JUNCTION        5.75          0.801        0.099
  YS02006553           JUNCTION        1.85          0.966        0.224
  YS02006561           JUNCTION        0.74          0.262        0.888
  YS02006556           JUNCTION        1.31          0.880        0.470
  YS02006558           JUNCTION        1.29          0.860        0.540
  YS02001783           JUNCTION        1.18          0.841        0.759
  YS02001784           JUNCTION        1.16          0.659        0.831
  YS02001786           JUNCTION        1.10          0.522        0.908
  YS02001788           JUNCTION        1.05          0.316        1.164
  YS02001790           JUNCTION        1.76          1.047        0.110
  YS02001791           JUNCTION        1.85          1.255        0.665
  YS02001793           JUNCTION        2.09          1.058        1.542
  
  
  *********************
  Node Flooding Summary
  *********************
  
  Flooding refers to all water that overflows a node, whether it ponds or not.
  --------------------------------------------------------------------------
                                                             Total   Maximum
                                 Maximum   Time of Max       Flood    Ponded
                        Hours       Rate    Occurrence      Volume     Depth
  Node                 Flooded       LPS   days hr:min    10^6 ltr    Meters
  --------------------------------------------------------------------------
  WS02006248              0.01     11.78      0  05:02       0.000     0.000
  WS02006249              0.16    185.13      0  03:10       0.056     0.000
  WS02006256              3.99    805.39      0  03:06       6.733     0.000
  YS02001779              3.00    604.78      0  03:04       2.168     0.000
  YS02001890              0.01      0.81      0  02:59       0.000     0.000
  YS02001907              0.54    399.29      0  03:01       0.411     0.000
  YS02001619              0.01     20.32      0  02:26       0.000     0.000
  YS02001644              5.10   1395.63      0  03:01       9.214     0.000
  YS02001652              0.01     12.84      0  02:46       0.000     0.000
  YS02001655              0.01     21.35      0  02:46       0.000     0.000
  YS02001661              0.01    144.81      0  02:46       0.000     0.000
  YS02001622              0.01     14.67      0  02:26       0.000     0.000
  YS02001649              0.01     41.90      0  02:46       0.000     0.000
  YS02001625              1.20    234.97      0  03:01       0.465     0.000
  JK-storage              0.66    708.31      0  02:30       0.648     0.000
  XR-storage              3.05    464.69      0  03:01       1.876     0.000
  
  
  **********************
  Storage Volume Summary
  **********************
  
  --------------------------------------------------------------------------------------------------
                         Average     Avg  Evap Exfil       Maximum     Max    Time of Max    Maximum
                          Volume    Pcnt  Pcnt  Pcnt        Volume    Pcnt     Occurrence    Outflow
  Storage Unit           1000 m3    Full  Loss  Loss       1000 m3    Full    days hr:min        LPS
  --------------------------------------------------------------------------------------------------
  JK-storage               0.116      40     0     0         0.291     100       0  02:26     983.00
  CC-storage               3.203      20     0     0         3.970      25       0  03:03     399.97
  XR-storage               0.779      84     0     0         0.926     100       0  02:55     380.00
  
  
  ***********************
  Outfall Loading Summary
  ***********************
  
  ---------------------------------------------------------------------------------------------------------------------------------
                         Flow       Avg       Max       Total         Total         Total         Total         Total         Total
                         Freq      Flow      Flow      Volume           COD            SS            TN            TP         NH4-N
  Outfall Node           Pcnt       LPS       LPS    10^6 ltr            kg            kg            kg            kg            kg
  ---------------------------------------------------------------------------------------------------------------------------------
  WSC                  100.00    722.09   1172.67      18.488      2200.537      3748.595       148.631        17.655        90.373
  ---------------------------------------------------------------------------------------------------------------------------------
  System               100.00    722.09   1172.67      18.488      2200.537      3748.595       148.631        17.655        90.373
  
  
  ********************
  Link Flow Summary
  ********************
  
  -----------------------------------------------------------------------------
                                 Maximum  Time of Max   Maximum    Max/    Max/
                                  |Flow|   Occurrence   |Veloc|    Full    Full
  Link                 Type          LPS  days hr:min     m/sec    Flow   Depth
  -----------------------------------------------------------------------------
  WS02003066WSF200     CONDUIT    775.73     0  03:09      2.91    0.13    0.29
  WS02006287WS02006284 CONDUIT    413.44     0  03:02      2.04    0.19    0.30
  WS02006284WS02006280 CONDUIT    413.58     0  03:02      2.28    0.17    0.28
  WS02006280WS02006229 CONDUIT    413.62     0  03:02      3.68    0.09    0.20
  WS02006229WS02006228 CONDUIT    780.38     0  03:06      1.55    2.58    1.00
  WS02006256WS02006235 CONDUIT    264.10     0  00:32      3.74    2.80    1.00
  WS02006253WS02006251 CONDUIT    123.66     0  04:21      0.58    0.37    1.00
  WS02006252WS02006251 CONDUIT    399.99     0  04:20      3.18    1.47    1.00
  WS02006251WS02006249 CONDUIT    447.63     0  03:10      1.16    1.29    1.00
  WS02006249WS02006248 CONDUIT    370.23     0  06:20      1.19    2.03    1.00
  WS02006248WS02006247 CONDUIT    365.72     0  06:21      1.16    0.80    1.00
  WS02006247WS02006245 CONDUIT    361.04     0  06:21      1.14    2.86    1.00
  WS02006245WS02006243 CONDUIT    356.04     0  06:21      1.18    1.05    1.00
  WS02006243WS02006242 CONDUIT    346.72     0  06:21      1.06    0.74    1.00
  WS02006242WS02006240 CONDUIT    337.22     0  06:22      1.00    1.34    1.00
  WS02006240WS02006239 CONDUIT    345.18     0  04:30      1.04    1.09    1.00
  WS02006239WS02006238 CONDUIT    349.60     0  04:30      0.95    1.12    1.00
  WS02006238WS02006235 CONDUIT    350.51     0  04:30      1.05    0.78    1.00
  WS02006235WS02006234 CONDUIT    515.82     0  04:24      1.34    5.44    1.00
  WS02006234WS02006232 CONDUIT    515.74     0  04:24      1.34    1.04    1.00
  WS02006232WS02006231 CONDUIT    515.70     0  04:24      1.34    1.08    1.00
  WS02006231WS02006230 CONDUIT    515.91     0  04:24      1.38    7.83    1.00
  WS02006230WS02006229 CONDUIT    527.17     0  04:24      1.37   11.73    1.00
  WS02006228WS02006109 CONDUIT    780.35     0  03:06      1.55    3.41    1.00
  WS02006116WS02004401 CONDUIT    780.48     0  03:08      0.99    1.08    1.00
  WS02006115WS02006116 CONDUIT    780.09     0  03:07      0.99    1.00    1.00
  WS02006113WS02006111 CONDUIT    773.07     0  03:06      2.59    0.93    0.72
  WS02006112WS02006115 CONDUIT    779.84     0  03:07      0.99    0.46    1.00
  WS02006111WS02006112 CONDUIT    771.85     0  03:07      1.72    0.37    0.85
  WS02006110WS02006113 CONDUIT    781.62     0  03:06      1.70    0.71    0.87
  WS02006109WS02006110 CONDUIT    781.76     0  03:06      1.56    1.50    1.00
  WS02004411WS02004412 CONDUIT    775.26     0  03:09      1.12    1.10    0.82
  WS02004401WS02004402 CONDUIT    780.77     0  03:07      0.99    0.94    1.00
  WS02004413WS02003067 CONDUIT    775.20     0  03:09      1.37    0.33    0.68
  WS02004412WS02004413 CONDUIT    775.14     0  03:09      1.05    0.52    0.89
  WS02004410WS02004411 CONDUIT    776.06     0  03:08      1.11    1.06    0.83
  WS02004409WS02004410 CONDUIT    777.96     0  03:08      1.12    1.01    0.83
  WS02004407WS02004409 CONDUIT    780.60     0  03:08      1.61    0.28    0.59
  WS02004406WS02004407 CONDUIT    781.03     0  03:08      1.37    0.35    0.68
  WS02004405WS02004406 CONDUIT    781.24     0  03:08      0.99    1.54    1.00
  WS02004404WS02004405 CONDUIT    781.97     0  03:07      1.05    7.66    1.00
  WS02004403WS02004404 CONDUIT    781.35     0  03:07      0.99    0.56    1.00
  WS02004402WS02004403 CONDUIT    780.95     0  03:07      0.99    1.12    1.00
  WS02004139WS02001211 CONDUIT    382.91     0  03:25      0.90    0.48    0.62
  WS02004138WS02004139 CONDUIT    394.13     0  00:00      3.62    0.08    0.45
  WS02003067WS02003066 CONDUIT    775.60     0  03:09      1.48    0.25    0.47
  WS02001213WS02003059 CONDUIT    399.26     0  03:24      0.89    0.66    0.83
  WS02001212WS02001213 CONDUIT    395.74     0  03:25      1.32    0.61    0.52
  WS02001211WS02001212 CONDUIT    393.10     0  03:24      0.78    0.30    0.68
  WS02003072WS02003073 CONDUIT   1170.29     0  03:12      1.87    2.53    0.54
  WS02003069WS02003072 CONDUIT   1170.00     0  03:11      1.74    0.56    0.57
  WS02003060WS02003069 CONDUIT   1169.72     0  03:10      1.97    0.46    0.52
  WS02003059WS02003060 CONDUIT    403.90     0  03:24      0.95    0.26    0.73
  HS02004901HS02004770 CONDUIT     20.53     0  03:01      0.07    0.08    0.42
  HS02004876HS02004881 CONDUIT     76.54     0  03:01      0.95    0.81    0.12
  HS02004870HS02004876 CONDUIT     61.90     0  03:01      0.65    0.04    0.14
  HS02004842HS02004848 CONDUIT     12.41     0  03:01      0.06    0.01    0.31
  HS02004837HS02004842 CONDUIT     12.98     0  03:02      0.42    0.01    0.32
  HS02004830HS02004837 CONDUIT     43.70     0  03:01      0.57    0.04    0.11
  HS02004824HS02004830 CONDUIT     43.66     0  03:01      0.59    0.06    0.11
  HS02004817HS02004824 CONDUIT     85.68     0  03:01      0.26    0.04    0.48
  HS02004770HS02004777 CONDUIT    104.13     0  03:01      0.35    0.19    0.43
  HS02004799HS02004480 CONDUIT    258.29     0  03:01      0.83    0.33    0.44
  HS02004792HS02004799 CONDUIT    237.03     0  03:01      0.95    0.15    0.36
  HS02004788HS02004792 CONDUIT    135.41     0  03:01      1.06    0.09    0.18
  HS02004785HS02004788 CONDUIT    103.21     0  03:02      0.71    0.78    0.21
  HS02004777HS02004785 CONDUIT    103.37     0  03:01      0.42    0.13    0.35
  HS02004480HS02004478 CONDUIT    302.27     0  03:01      1.26    1.27    0.34
  HS02004479HS02004480 CONDUIT     46.29     0  03:02      0.32    0.04    0.43
  HS02004862HS02004870 CONDUIT     47.43     0  03:01      0.66    0.05    0.10
  HS02004848HS02004852 CONDUIT     21.94     0  03:01      0.45    0.02    0.07
  HS02004856HS02004862 CONDUIT     32.47     0  03:01      0.48    0.03    0.10
  HS02004852HS02004856 CONDUIT     21.85     0  03:02      0.25    0.02    0.13
  HS02004802HS02004478 CONDUIT    111.51     0  03:02      0.45    0.10    0.36
  HS02004478WS02006287 CONDUIT    413.19     0  03:01      1.75    0.12    0.26
  HS02004817HS02004807 CONDUIT     86.13     0  03:01      0.19    0.05    0.63
  HS02004807HS02004802 CONDUIT    111.36     0  03:01      0.38    0.21    0.42
  YS02001759YS02001757 CONDUIT    573.66     0  02:38      0.73    0.41    1.00
  YS02001762YS02001759 CONDUIT    291.66     0  02:38      0.37    0.34    1.00
  YS02001765YS02001762 CONDUIT    291.36     0  02:38      0.37    0.27    1.00
  YS02001770YS02001767 CONDUIT    291.17     0  02:38      0.37    1.15    1.00
  YS02001774YS02001770 CONDUIT    604.78     0  03:04      0.77    0.39    1.00
  YS02001779YS02001774 CONDUIT    604.82     0  03:04      0.77    0.30    1.00
  YS02001649YS02001757 CONDUIT    821.28     0  02:35      1.05    0.50    1.00
  YS02001767YS02001765 CONDUIT    291.19     0  02:38      0.37    0.37    1.00
  YS02006561YS02001783 CONDUIT   1023.61     0  02:47      2.15    0.53    1.00
  YS02001783YS02001784 CONDUIT   1023.77     0  02:47      2.04    1.41    1.00
  YS02001784YS02001785 CONDUIT   1024.55     0  02:47      2.04    2.38    1.00
  YS02001788YS02001790 CONDUIT   1024.68     0  02:47      2.44    0.76    1.00
  YS02001790YS02001791 CONDUIT   1024.76     0  02:47      2.92    1.11    1.00
  YS02001791YS02001793 CONDUIT   1025.13     0  02:47      5.75    0.44    1.00
  YS02001910YS02001907 CONDUIT    455.80     0  03:01      0.58    0.26    1.00
  YS02001786YS02001788 CONDUIT   1024.67     0  02:47      2.31    1.97    1.00
  YS02001915YS02001910 CONDUIT    456.07     0  03:01      0.59    0.23    1.00
  YS02001918YS02001915 CONDUIT    246.93     0  03:31      0.44    0.14    1.00
  YS02001923YS02001920 CONDUIT    191.59     0  03:29      0.72    0.09    1.00
  YS02001926YS02001923 CONDUIT    170.88     0  02:49      0.83    0.24    0.86
  YS02001929YS02001926 CONDUIT    155.01     0  03:01      0.89    0.07    0.76
  YS02001920YS02001918 CONDUIT    209.18     0  03:30      0.70    0.20    1.00
  YS02001629YS02163301 CONDUIT    200.32     0  02:27      0.26    0.25    1.00
  YS02001619YS02001622 CONDUIT    291.13     0  03:01      0.61    0.43    1.00
  YS02001622YS02001625 CONDUIT    290.65     0  03:01      0.37    0.16    1.00
  YS02001625YS02001629 CONDUIT    195.73     0  02:18      0.25    0.09    1.00
  YS02163301YS02001633 CONDUIT    202.91     0  02:27      0.26    0.19    1.00
  YS02163601YS02164001 CONDUIT    398.31     0  02:35      0.51    0.35    1.00
  YS02164001YS02001641 CONDUIT    396.94     0  02:34      0.51    0.54    1.00
  YS02001641YS02001644 CONDUIT    397.28     0  02:34      0.51    1.28    1.00
  YS02001647YS02001649 CONDUIT    701.95     0  03:04      0.89    0.37    1.00
  YS02006553YS02006556 CONDUIT    704.13     0  03:31      0.90    0.60    1.00
  YS02006556YS02006558 CONDUIT    704.47     0  03:31      0.90    0.56    1.00
  YSB6556YSB1171       CONDUIT     25.76     0  03:03      0.09    0.03    0.70
  YS02001907YS02006553 CONDUIT    703.80     0  03:31      0.78    0.83    1.00
  YS02006558YS02006561 CONDUIT   1023.64     0  02:47      3.62    2.26    1.00
  YS02001633YS02163601 CONDUIT    397.73     0  02:35      0.51    0.42    1.00
  YS02001644YS02001647 CONDUIT    701.87     0  03:04      0.89    0.41    1.00
  YS02001745YS02001748 CONDUIT    554.12     0  02:26      1.47    0.21    0.96
  YS02001748YS02001751 CONDUIT    340.60     0  03:01      1.06    0.17    1.00
  YS02001751YS02001754 CONDUIT    340.57     0  03:01      0.92    0.16    1.00
  YS02001754YS02001757 CONDUIT    340.72     0  03:01      0.43    0.14    1.00
  YS02001882YS02001884 CONDUIT     28.44     0  02:28      0.13    0.03    1.00
  YS02001884YS02001887 CONDUIT     57.24     0  02:28      0.09    0.08    1.00
  YS02001890YS02001895 CONDUIT    495.00     0  03:01      0.63    0.23    1.00
  YS02001895YS02001898 CONDUIT    495.43     0  03:01      0.63    0.86    1.00
  YS02001898YS02001901 CONDUIT    495.19     0  03:01      0.63    0.32    1.00
  YS02001901YS02001904 CONDUIT    495.63     0  03:01      0.63    0.77    1.00
  YS02001904YS02001907 CONDUIT    495.63     0  03:01      0.63    0.17    1.00
  YS02001887YS02001890 CONDUIT    495.24     0  03:01      0.63    0.85    1.00
  YS02001652YS02001649 CONDUIT    370.85     0  03:01      0.63    0.18    1.00
  YS02001655YS02001652 CONDUIT    370.10     0  03:01      0.98    0.18    1.00
  YS02001658YS02001655 CONDUIT    369.66     0  03:01      1.22    0.16    1.00
  YS02001661YS02001658 CONDUIT    595.29     0  02:23      1.55    0.23    1.00
  YS02001664YS02001661 CONDUIT    622.94     0  02:46      1.43    0.20    0.77
  YSB1154YSB6556       CONDUIT     25.82     0  03:01      0.17    0.05    0.59
  YSB1174YSB1171       CONDUIT     20.15     0  03:01      0.07    0.03    0.70
  YSB1171HS02004479    CONDUIT     44.91     0  03:02      0.54    0.03    0.55
  HS02004881HS02006253 CONDUIT     84.16     0  03:01      2.12    0.02    0.52
  YS02001793JiankangQianchi CONDUIT   1024.88     0  02:47     16.56    0.08    1.00
  YS02001757CaochengTiaoxuchi CONDUIT   1575.40     0  02:36      2.02    0.69    1.00
  WSF200WS02003060     CONDUIT    776.19     0  03:10      1.81    0.17    0.40
  1                    CONDUIT   1172.67     0  03:12      3.47    0.41    0.45
  CC-Pump-1            PUMP       200.00     0  04:20              1.00
  CC-Pump-2            PUMP       199.98     0  03:10              1.00
  JK-Pump-1            PUMP       300.00     0  02:00              1.00
  JK-Pump-2            PUMP       683.00     0  02:00              1.00
  XR-Pump-1            PUMP        95.00     0  00:00              1.00
  XR-Pump-2            PUMP        95.00     0  00:00              1.00
  XR-Pump-3            PUMP        95.00     0  00:00              1.00
  XR-Pump-4            PUMP        95.00     0  00:00              1.00
  
  
  ***************************
  Flow Classification Summary
  ***************************
  
  -------------------------------------------------------------------------------------
                      Adjusted    ---------- Fraction of Time in Flow Class ---------- 
                       /Actual         Up    Down  Sub   Sup   Up    Down  Norm  Inlet 
  Conduit               Length    Dry  Dry   Dry   Crit  Crit  Crit  Crit  Ltd   Ctrl  
  -------------------------------------------------------------------------------------
  WS02003066WSF200        1.00   0.01  0.05  0.00  0.00  0.94  0.00  0.00  0.60  0.00
  WS02006287WS02006284    1.00   0.03  0.01  0.00  0.64  0.31  0.00  0.00  0.62  0.00
  WS02006284WS02006280    1.00   0.04  0.00  0.00  0.00  0.00  0.00  0.96  0.00  0.00
  WS02006280WS02006229    1.00   0.04  0.00  0.00  0.00  0.01  0.00  0.95  0.01  0.00
  WS02006229WS02006228    1.00   0.00  0.00  0.00  1.00  0.00  0.00  0.00  0.00  0.00
  WS02006256WS02006235    1.00   0.02  0.00  0.00  0.98  0.00  0.00  0.00  0.00  0.00
  WS02006253WS02006251    1.00   0.01  0.02  0.00  0.96  0.00  0.01  0.00  0.00  0.00
  WS02006252WS02006251    1.00   0.22  0.00  0.00  0.03  0.00  0.74  0.00  0.00  0.00
  WS02006251WS02006249    1.00   0.00  0.00  0.00  1.00  0.00  0.00  0.00  0.34  0.00
  WS02006249WS02006248    1.00   0.00  0.00  0.00  0.87  0.00  0.13  0.00  0.00  0.00
  WS02006248WS02006247    1.00   0.01  0.00  0.00  0.98  0.00  0.00  0.02  0.19  0.00
  WS02006247WS02006245    1.00   0.01  0.00  0.00  0.97  0.00  0.00  0.03  0.00  0.00
  WS02006245WS02006243    1.00   0.01  0.00  0.00  0.94  0.00  0.00  0.06  0.01  0.00
  WS02006243WS02006242    1.00   0.01  0.00  0.00  0.98  0.00  0.00  0.01  0.21  0.00
  WS02006242WS02006240    1.00   0.01  0.01  0.00  0.98  0.00  0.00  0.00  0.00  0.00
  WS02006240WS02006239    1.00   0.02  0.00  0.00  0.94  0.00  0.00  0.04  0.02  0.00
  WS02006239WS02006238    1.00   0.02  0.00  0.00  0.98  0.00  0.00  0.00  0.06  0.00
  WS02006238WS02006235    1.00   0.02  0.00  0.00  0.98  0.00  0.00  0.00  0.00  0.00
  WS02006235WS02006234    1.00   0.02  0.00  0.00  0.96  0.00  0.02  0.00  0.00  0.00
  WS02006234WS02006232    1.00   0.02  0.00  0.00  0.98  0.00  0.00  0.00  0.02  0.00
  WS02006232WS02006231    1.00   0.02  0.00  0.00  0.98  0.00  0.00  0.00  0.00  0.00
  WS02006231WS02006230    1.00   0.02  0.00  0.00  0.59  0.00  0.39  0.00  0.00  0.00
  WS02006230WS02006229    1.00   0.00  0.00  0.00  0.99  0.00  0.00  0.01  0.00  0.00
  WS02006228WS02006109    1.00   0.00  0.00  0.00  1.00  0.00  0.00  0.00  0.01  0.00
  WS02006116WS02004401    1.00   0.02  0.00  0.00  0.98  0.00  0.00  0.00  0.00  0.00
  WS02006115WS02006116    1.00   0.02  0.00  0.00  0.97  0.00  0.00  0.00  0.00  0.00
  WS02006113WS02006111    1.00   0.02  0.00  0.00  0.01  0.97  0.00  0.00  0.21  0.00
  WS02006112WS02006115    1.00   0.02  0.00  0.00  0.97  0.00  0.00  0.00  0.00  0.00
  WS02006111WS02006112    1.00   0.02  0.00  0.00  0.98  0.00  0.00  0.00  0.85  0.00
  WS02006110WS02006113    1.00   0.00  0.01  0.00  0.98  0.00  0.00  0.00  0.00  0.00
  WS02006109WS02006110    1.00   0.00  0.00  0.00  0.99  0.00  0.00  0.00  0.00  0.00
  WS02004411WS02004412    1.00   0.04  0.00  0.00  0.96  0.00  0.00  0.00  0.00  0.00
  WS02004401WS02004402    1.00   0.03  0.00  0.00  0.97  0.00  0.00  0.00  0.00  0.00
  WS02004413WS02003067    1.00   0.04  0.01  0.00  0.00  0.00  0.95  0.00  0.00  0.00
  WS02004412WS02004413    1.00   0.04  0.00  0.00  0.96  0.00  0.00  0.00  0.01  0.00
  WS02004410WS02004411    1.00   0.03  0.00  0.00  0.97  0.00  0.00  0.00  0.01  0.00
  WS02004409WS02004410    1.00   0.03  0.00  0.00  0.97  0.00  0.00  0.00  0.03  0.00
  WS02004407WS02004409    1.00   0.03  0.00  0.00  0.96  0.00  0.00  0.00  0.88  0.00
  WS02004406WS02004407    1.00   0.00  0.03  0.00  0.97  0.00  0.00  0.00  0.00  0.00
  WS02004405WS02004406    1.00   0.00  0.00  0.00  1.00  0.00  0.00  0.00  0.04  0.00
  WS02004404WS02004405    1.00   0.00  0.00  0.00  1.00  0.00  0.00  0.00  0.00  0.00
  WS02004403WS02004404    1.00   0.00  0.03  0.00  0.97  0.00  0.00  0.00  0.00  0.00
  WS02004402WS02004403    1.00   0.03  0.00  0.00  0.97  0.00  0.00  0.00  0.00  0.00
  WS02004139WS02001211    1.00   0.00  0.00  0.00  1.00  0.00  0.00  0.00  0.00  0.00
  WS02004138WS02004139    1.00   0.00  0.00  0.00  1.00  0.00  0.00  0.00  1.00  0.00
  WS02003067WS02003066    1.00   0.05  0.01  0.00  0.94  0.00  0.00  0.00  0.00  0.00
  WS02001213WS02003059    1.00   0.00  0.00  0.00  1.00  0.00  0.00  0.00  0.00  0.00
  WS02001212WS02001213    1.00   0.00  0.00  0.00  0.90  0.00  0.10  0.00  0.00  0.00
  WS02001211WS02001212    1.00   0.00  0.00  0.00  1.00  0.00  0.00  0.00  0.00  0.00
  WS02003072WS02003073    1.00   0.00  0.00  0.00  0.00  0.00  0.00  1.00  0.00  0.00
  WS02003069WS02003072    1.00   0.00  0.00  0.00  1.00  0.00  0.00  0.00  0.10  0.00
  WS02003060WS02003069    1.00   0.00  0.00  0.00  0.99  0.01  0.00  0.00  0.07  0.00
  WS02003059WS02003060    1.00   0.00  0.00  0.00  1.00  0.00  0.00  0.00  0.00  0.00
  HS02004901HS02004770    1.00   0.04  0.00  0.00  0.96  0.00  0.00  0.00  0.00  0.00
  HS02004876HS02004881    1.00   0.01  0.00  0.00  0.92  0.08  0.00  0.00  0.00  0.00
  HS02004870HS02004876    1.00   0.00  0.00  0.00  1.00  0.00  0.00  0.00  0.95  0.00
  HS02004842HS02004848    1.00   0.00  0.04  0.00  0.96  0.00  0.00  0.00  0.55  0.00
  HS02004837HS02004842    1.00   0.00  0.00  0.00  1.00  0.00  0.00  0.00  0.11  0.00
  HS02004830HS02004837    1.00   0.00  0.00  0.00  1.00  0.00  0.00  0.00  0.99  0.00
  HS02004824HS02004830    1.00   0.00  0.00  0.00  1.00  0.00  0.00  0.00  0.00  0.00
  HS02004817HS02004824    1.00   0.00  0.00  0.00  1.00  0.00  0.00  0.00  1.00  0.00
  HS02004770HS02004777    1.00   0.00  0.04  0.00  0.96  0.00  0.00  0.00  0.02  0.00
  HS02004799HS02004480    1.00   0.00  0.01  0.00  0.95  0.00  0.04  0.00  0.00  0.00
  HS02004792HS02004799    1.00   0.00  0.00  0.00  1.00  0.00  0.00  0.00  0.98  0.00
  HS02004788HS02004792    1.00   0.00  0.00  0.00  1.00  0.00  0.00  0.00  0.98  0.00
  HS02004785HS02004788    1.00   0.00  0.00  0.00  1.00  0.00  0.00  0.00  0.00  0.00
  HS02004777HS02004785    1.00   0.00  0.00  0.00  1.00  0.00  0.00  0.00  0.12  0.00
  HS02004480HS02004478    1.00   0.04  0.00  0.00  0.69  0.00  0.00  0.27  0.00  0.00
  HS02004479HS02004480    1.00   0.01  0.00  0.00  0.99  0.00  0.00  0.00  0.11  0.00
  HS02004862HS02004870    1.00   0.00  0.00  0.00  1.00  0.00  0.00  0.00  0.03  0.00
  HS02004848HS02004852    1.00   0.04  0.00  0.00  0.96  0.00  0.00  0.00  0.62  0.00
  HS02004856HS02004862    1.00   0.00  0.05  0.00  0.95  0.00  0.00  0.00  0.83  0.00
  HS02004852HS02004856    1.00   0.04  0.00  0.00  0.96  0.00  0.00  0.00  0.85  0.00
  HS02004802HS02004478    1.00   0.04  0.00  0.00  0.96  0.00  0.00  0.00  0.02  0.00
  HS02004478WS02006287    1.00   0.05  0.00  0.00  0.74  0.21  0.00  0.00  0.64  0.00
  HS02004817HS02004807    1.00   0.00  0.04  0.00  0.96  0.00  0.00  0.00  0.01  0.00
  HS02004807HS02004802    1.00   0.04  0.00  0.00  0.96  0.00  0.00  0.00  0.00  0.00
  YS02001759YS02001757    1.00   0.00  0.00  0.00  1.00  0.00  0.00  0.00  0.16  0.00
  YS02001762YS02001759    1.00   0.00  0.00  0.00  1.00  0.00  0.00  0.00  0.03  0.00
  YS02001765YS02001762    1.00   0.00  0.00  0.00  1.00  0.00  0.00  0.00  0.13  0.00
  YS02001770YS02001767    1.00   0.00  0.00  0.00  1.00  0.00  0.00  0.00  0.00  0.00
  YS02001774YS02001770    1.00   0.00  0.04  0.00  0.96  0.00  0.00  0.00  0.02  0.00
  YS02001779YS02001774    1.00   0.00  0.00  0.00  1.00  0.00  0.00  0.00  0.18  0.00
  YS02001649YS02001757    1.00   0.00  0.00  0.00  1.00  0.00  0.00  0.00  0.16  0.00
  YS02001767YS02001765    1.00   0.00  0.00  0.00  1.00  0.00  0.00  0.00  0.00  0.00
  YS02006561YS02001783    1.00   0.05  0.00  0.00  0.27  0.67  0.00  0.00  0.47  0.00
  YS02001783YS02001784    1.00   0.00  0.05  0.00  0.95  0.00  0.00  0.00  0.00  0.00
  YS02001784YS02001785    1.00   0.00  0.00  0.00  1.00  0.00  0.00  0.00  0.17  0.00
  YS02001788YS02001790    1.00   0.00  0.00  0.00  0.34  0.66  0.00  0.00  0.38  0.00
  YS02001790YS02001791    1.00   0.00  0.00  0.00  0.29  0.71  0.00  0.00  0.50  0.00
  YS02001791YS02001793    1.00   0.00  0.00  0.00  0.31  0.69  0.00  0.00  0.02  0.00
  YS02001910YS02001907    1.00   0.00  0.00  0.00  0.99  0.00  0.00  0.01  0.12  0.00
  YS02001786YS02001788    1.00   0.00  0.00  0.00  0.32  0.68  0.00  0.00  0.00  0.00
  YS02001915YS02001910    1.00   0.00  0.00  0.00  0.99  0.01  0.00  0.00  0.15  0.00
  YS02001918YS02001915    1.00   0.00  0.00  0.00  0.99  0.00  0.00  0.00  0.55  0.00
  YS02001923YS02001920    1.00   0.00  0.00  0.00  1.00  0.00  0.00  0.00  0.84  0.00
  YS02001926YS02001923    1.00   0.00  0.02  0.00  0.13  0.00  0.85  0.00  0.00  0.00
  YS02001929YS02001926    1.00   0.00  0.04  0.00  0.96  0.00  0.00  0.00  0.76  0.00
  YS02001920YS02001918    1.00   0.00  0.00  0.00  1.00  0.00  0.00  0.00  0.00  0.00
  YS02001629YS02163301    1.00   0.04  0.00  0.00  0.95  0.00  0.00  0.00  0.00  0.00
  YS02001619YS02001622    1.00   0.04  0.00  0.00  0.96  0.00  0.00  0.00  0.00  0.00
  YS02001622YS02001625    1.00   0.04  0.00  0.00  0.96  0.00  0.00  0.00  0.04  0.00
  YS02001625YS02001629    1.00   0.04  0.02  0.00  0.93  0.00  0.02  0.00  0.00  0.00
  YS02163301YS02001633    1.00   0.00  0.04  0.00  0.96  0.00  0.00  0.00  0.00  0.00
  YS02163601YS02164001    1.00   0.00  0.02  0.00  0.98  0.00  0.00  0.00  0.00  0.00
  YS02164001YS02001641    1.00   0.00  0.02  0.00  0.97  0.00  0.00  0.00  0.06  0.00
  YS02001641YS02001644    1.00   0.00  0.00  0.00  1.00  0.00  0.00  0.00  0.00  0.00
  YS02001647YS02001649    1.00   0.00  0.05  0.00  0.95  0.00  0.00  0.00  0.01  0.00
  YS02006553YS02006556    1.00   0.00  0.00  0.00  1.00  0.00  0.00  0.00  0.03  0.00
  YS02006556YS02006558    1.00   0.00  0.00  0.00  1.00  0.00  0.00  0.00  0.00  0.00
  YSB6556YSB1171          1.00   0.01  0.03  0.00  0.96  0.00  0.00  0.00  0.00  0.00
  YS02001907YS02006553    1.00   0.00  0.01  0.00  0.99  0.00  0.00  0.00  0.00  0.00
  YS02006558YS02006561    1.00   0.05  0.00  0.00  0.14  0.81  0.00  0.00  0.50  0.00
  YS02001633YS02163601    1.00   0.00  0.00  0.00  1.00  0.00  0.00  0.00  0.15  0.00
  YS02001644YS02001647    1.00   0.00  0.05  0.00  0.95  0.00  0.00  0.00  0.00  0.00
  YS02001745YS02001748    1.00   0.00  0.00  0.00  0.90  0.01  0.00  0.09  0.04  0.00
  YS02001748YS02001751    1.00   0.00  0.00  0.00  0.97  0.03  0.00  0.00  0.15  0.00
  YS02001751YS02001754    1.00   0.00  0.00  0.00  0.94  0.00  0.00  0.06  0.02  0.00
  YS02001754YS02001757    1.00   0.00  0.00  0.00  1.00  0.00  0.00  0.00  0.18  0.00
  YS02001882YS02001884    1.00   0.04  0.00  0.00  0.95  0.00  0.00  0.00  0.00  0.00
  YS02001884YS02001887    1.00   0.02  0.02  0.00  0.97  0.00  0.00  0.00  0.00  0.00
  YS02001890YS02001895    1.00   0.00  0.05  0.00  0.95  0.00  0.00  0.00  0.00  0.00
  YS02001895YS02001898    1.00   0.05  0.00  0.00  0.94  0.00  0.01  0.00  0.00  0.00
  YS02001898YS02001901    1.00   0.05  0.00  0.00  0.95  0.00  0.00  0.00  0.01  0.00
  YS02001901YS02001904    1.00   0.05  0.00  0.00  0.95  0.00  0.00  0.00  0.00  0.00
  YS02001904YS02001907    1.00   0.00  0.05  0.00  0.95  0.00  0.00  0.00  0.00  0.00
  YS02001887YS02001890    1.00   0.00  0.00  0.00  0.99  0.00  0.01  0.00  0.00  0.00
  YS02001652YS02001649    1.00   0.00  0.00  0.00  1.00  0.00  0.00  0.00  0.16  0.00
  YS02001655YS02001652    1.00   0.00  0.00  0.00  0.94  0.00  0.00  0.06  0.02  0.00
  YS02001658YS02001655    1.00   0.00  0.04  0.00  0.93  0.03  0.00  0.00  0.08  0.00
  YS02001661YS02001658    1.00   0.04  0.00  0.00  0.90  0.05  0.00  0.00  0.08  0.00
  YS02001664YS02001661    1.00   0.04  0.00  0.00  0.91  0.05  0.00  0.00  0.19  0.00
  YSB1154YSB6556          1.00   0.04  0.00  0.00  0.96  0.00  0.00  0.00  0.01  0.00
  YSB1174YSB1171          1.00   0.01  0.02  0.00  0.97  0.00  0.00  0.00  0.00  0.00
  YSB1171HS02004479       1.00   0.01  0.00  0.00  0.99  0.00  0.00  0.00  0.10  0.00
  HS02004881HS02006253    1.00   0.01  0.00  0.00  0.45  0.03  0.00  0.51  0.30  0.00
  YS02001793JiankangQianchi    1.00   0.00  0.00  0.00  0.57  0.43  0.00  0.00  0.40  0.00
  YS02001757CaochengTiaoxuchi    1.00   0.00  0.07  0.00  0.93  0.00  0.00  0.00  0.00  0.00
  WSF200WS02003060        1.00   0.00  0.01  0.00  0.98  0.01  0.00  0.00  0.49  0.00
  1                       1.00   0.00  0.00  0.00  0.00  1.00  0.00  0.00  0.48  0.00
  
  
  *************************
  Conduit Surcharge Summary
  *************************
  
  ----------------------------------------------------------------------------
                                                           Hours        Hours 
                         --------- Hours Full --------   Above Full   Capacity
  Conduit                Both Ends  Upstream  Dnstream   Normal Flow   Limited
  ----------------------------------------------------------------------------
  WS02006229WS02006228        2.46      2.61      2.46      3.98         2.46
  WS02006256WS02006235        5.53      5.54      6.83      4.32         0.01
  WS02006253WS02006251        0.44      0.44      0.47      0.01         0.02
  WS02006252WS02006251        0.38      0.38      0.75      0.58         0.01
  WS02006251WS02006249        0.44      0.45      0.50      0.20         0.11
  WS02006249WS02006248        0.45      0.45      0.50      1.32         0.01
  WS02006248WS02006247        0.50      0.50      0.60      0.01         0.01
  WS02006247WS02006245        0.60      0.61      0.60      2.05         0.58
  WS02006245WS02006243        0.61      0.61      0.67      0.03         0.02
  WS02006243WS02006242        0.71      0.71      1.10      0.01         0.01
  WS02006242WS02006240        0.99      0.99      1.28      0.59         0.01
  WS02006240WS02006239        1.02      1.03      1.26      0.09         0.07
  WS02006239WS02006238        1.50      1.50      1.65      0.12         0.09
  WS02006238WS02006235        1.64      1.64      1.91      0.01         0.02
  WS02006235WS02006234        1.33      1.33      1.59      5.38         0.01
  WS02006234WS02006232        1.48      1.48      2.22      0.08         0.10
  WS02006232WS02006231        0.86      0.86      2.22      0.16         0.01
  WS02006231WS02006230        0.63      0.63      0.92      5.70         0.01
  WS02006230WS02006229        3.23      3.62      3.23      6.08         3.23
  WS02006228WS02006109        2.51      2.93      2.51      4.84         2.51
[...]
  YS02001765YS02001762        5.84      5.84      5.87      0.01         0.01
  YS02001770YS02001767        5.81      5.81      5.81      0.19         0.67
  YS02001774YS02001770        5.80      5.80      5.86      0.01         0.01
  YS02001779YS02001774        5.67      5.67      5.86      0.01         0.01
  YS02001649YS02001757        5.88      5.88      5.98      0.01         0.01
  YS02001767YS02001765        5.81      5.81      5.84      0.01         0.01
  YS02006561YS02001783        0.74      0.74      1.18      0.01         0.01
  YS02001783YS02001784        1.16      1.18      1.16      1.31         1.08
  YS02001784YS02001785        1.10      1.16      1.10      2.40         1.10
  YS02001788YS02001790        1.05      1.05      1.76      0.01         0.01
  YS02001790YS02001791        1.76      1.76      1.85      0.92         0.89
  YS02001791YS02001793        1.85      1.85      2.17      0.01         0.01
  YS02001910YS02001907        1.11      1.11      1.76      0.01         0.01
  YS02001786YS02001788        1.05      1.10      1.05      1.95         1.05
  YS02001915YS02001910        0.92      0.92      1.11      0.01         0.01
  YS02001918YS02001915        0.70      0.70      0.92      0.01         0.01
  YS02001923YS02001920        0.53      0.53      0.73      0.01         0.01
  YS02001920YS02001918        0.70      0.70      0.73      0.01         0.01
  YS02001629YS02163301        5.80      5.80      5.81      0.01         0.01
  YS02001619YS02001622        5.47      5.47      5.51      0.01         0.01
  YS02001622YS02001625        5.51      5.51      5.76      0.01         0.01
  YS02001625YS02001629        5.49      5.49      5.76      0.01         0.01
  YS02163301YS02001633        5.81      5.81      5.84      0.01         0.01
  YS02163601YS02164001        5.83      5.83      5.87      0.01         0.01
  YS02164001YS02001641        5.83      5.83      5.85      0.01         0.03
  YS02001641YS02001644        5.85      5.85      5.85      1.52         1.51
  YS02001647YS02001649        5.75      5.75      5.88      0.01         0.01
  YS02006553YS02006556        1.31      1.31      1.85      0.01         0.01
  YS02006556YS02006558        1.51      1.51      1.95      0.01         0.01
  YS02001907YS02006553        2.41      2.41      2.62      0.01         0.01
  YS02006558YS02006561        0.94      1.29      0.94      2.24         0.94
  YS02001633YS02163601        5.83      5.83      5.87      0.01         0.01
  YS02001644YS02001647        5.75      5.75      5.85      0.01         0.01
  YS02001745YS02001748        0.01      0.01      5.30      0.01         0.01
  YS02001748YS02001751        5.36      5.36      5.48      0.01         0.01
  YS02001751YS02001754        5.48      5.48      5.70      0.01         0.01
  YS02001754YS02001757        5.74      5.74      5.98      0.01         0.01
  YS02001882YS02001884        0.93      0.93      0.95      0.01         0.01
  YS02001884YS02001887        1.00      1.00      1.03      0.01         0.01
  YS02001890YS02001895        0.91      0.91      1.13      0.01         0.01
  YS02001895YS02001898        0.89      0.89      0.91      0.01         0.01
  YS02001898YS02001901        0.91      0.91      1.00      0.01         0.01
  YS02001901YS02001904        0.98      0.98      1.00      0.01         0.01
  YS02001904YS02001907        0.98      0.98      1.88      0.01         0.01
  YS02001887YS02001890        1.06      1.06      1.08      0.01         0.01
  YS02001652YS02001649        5.76      5.76      5.88      0.01         0.01
  YS02001655YS02001652        5.50      5.50      5.73      0.01         0.01
  YS02001658YS02001655        5.33      5.33      5.50      0.01         0.01
  YS02001661YS02001658        0.13      0.13      5.33      0.01         0.01
  YS02001664YS02001661        0.01      0.01      1.09      0.01         0.01
  HS02004881HS02006253        0.01      0.01      0.19      0.01         0.01
  YS02001793JiankangQianchi        2.09      2.09      4.29      0.01         0.01
  YS02001757CaochengTiaoxuchi        5.21      5.21      5.98      0.01         0.01
  
  
  ***************
  Pumping Summary
  ***************
  
  ---------------------------------------------------------------------------------------------------------
                                                  Min       Avg       Max     Total     Power    % Time Off
                        Percent   Number of      Flow      Flow      Flow    Volume     Usage    Pump Curve
  Pump                 Utilized   Start-Ups       LPS       LPS       LPS  10^6 ltr     Kw-hr    Low   High
  ---------------------------------------------------------------------------------------------------------
  CC-Pump-1               42.55           5      0.00    120.13    200.00     1.320      0.98    0.0    0.0
  CC-Pump-2               21.27           5      0.00    102.20    199.98     0.600      0.59    0.0    0.0
  JK-Pump-1               59.59           5      0.00    212.89    300.00     3.567     57.17    0.0    0.0
  JK-Pump-2               59.59           5      0.00    384.47    683.00     6.778     99.18    0.0   96.3
  XR-Pump-1               97.87           2      0.00     93.09     95.00     2.508     23.97    0.0    0.0
  XR-Pump-2               97.87           2      0.00     93.09     95.00     2.508     23.97    0.0    0.0
  XR-Pump-3               95.75           3      0.00     93.10     95.00     2.451     22.68    0.0    0.0
  XR-Pump-4               95.75           3      0.00     93.10     95.00     2.451     22.68    0.0    0.0
  
  
  ***************************
  Link Pollutant Load Summary
  ***************************
  
  ------------------------------------------------------------------------------------------
                                 COD            SS            TN            TP         NH4-N
  Link                            kg            kg            kg            kg            kg
  ------------------------------------------------------------------------------------------
  WS02003066WSF200           662.109      1222.689        18.290         1.648         9.749
  WS02006287WS02006284       268.037       498.171         9.345         0.943         5.213
  WS02006284WS02006280       268.522       498.953         9.392         0.949         5.242
  WS02006280WS02006229       268.486       498.886         9.389         0.948         5.241
  WS02006229WS02006228       660.879      1220.657        17.878         1.589         9.480
  WS02006256WS02006235       193.712       356.616         4.232         0.328         2.135
  WS02006253WS02006251        53.371       102.588         1.199         0.090         0.597
  WS02006252WS02006251       162.188       293.190         3.440         0.252         1.698
  WS02006251WS02006249       207.157       380.693         4.470         0.331         2.214
  WS02006249WS02006248       201.470       370.136         4.347         0.322         2.153
  WS02006248WS02006247       201.836       370.809         4.358         0.323         2.159
  WS02006247WS02006245       201.874       370.866         4.361         0.323         2.161
  WS02006245WS02006243       201.500       370.244         4.352         0.322         2.156
  WS02006243WS02006242       201.774       370.720         4.362         0.323         2.162
  WS02006242WS02006240       202.845       372.645         4.378         0.324         2.168
  WS02006240WS02006239       204.761       376.046         4.426         0.328         2.193
  WS02006239WS02006238       207.551       380.786         4.511         0.336         2.239
  WS02006238WS02006235       209.141       383.381         4.560         0.340         2.266
  WS02006235WS02006234       394.211       724.884         8.556         0.647         4.277
  WS02006234WS02006232       394.050       724.588         8.556         0.648         4.277
  WS02006232WS02006231       393.643       723.859         8.546         0.647         4.272
  WS02006231WS02006230       393.490       723.579         8.544         0.647         4.271
  WS02006230WS02006229       393.148       723.056         8.528         0.645         4.263
  WS02006228WS02006109       659.923      1219.003        17.835         1.584         9.455
  WS02006116WS02004401       671.091      1238.588        18.545         1.671         9.886
  WS02006115WS02006116       672.315      1240.746        18.585         1.674         9.908
  WS02006113WS02006111       666.033      1228.520        18.532         1.673         9.895
  WS02006112WS02006115       673.292      1242.434        18.626         1.679         9.931
  WS02006111WS02006112       665.535      1227.657        18.513         1.671         9.884
  WS02006110WS02006113       666.331      1229.013        18.549         1.675         9.905
  WS02006109WS02006110       667.391      1230.789        18.613         1.682         9.943
  WS02004411WS02004412       664.437      1226.717        18.385         1.658         9.804
  WS02004401WS02004402       669.992      1236.681        18.502         1.666         9.861
  WS02004413WS02003067       662.586      1223.553        18.302         1.649         9.755
  WS02004412WS02004413       663.639      1225.325        18.356         1.655         9.788
  WS02004410WS02004411       665.064      1227.822        18.406         1.660         9.815
  WS02004409WS02004410       665.689      1228.913        18.430         1.662         9.829
  WS02004407WS02004409       666.197      1229.821        18.444         1.664         9.836
  WS02004406WS02004407       666.377      1230.169        18.443         1.663         9.835
  WS02004405WS02004406       667.712      1232.446        18.514         1.671         9.878
  WS02004404WS02004405       668.529      1233.960        18.515         1.670         9.875
  WS02004403WS02004404       668.021      1233.238        18.430         1.659         9.820
  WS02004402WS02004403       668.902      1234.765        18.465         1.662         9.840
  WS02004139WS02001211      1398.935      2304.797       116.324        14.245        71.836
  WS02004138WS02004139      1405.386      2315.452       116.845        14.309        72.156
  WS02003067WS02003066       662.279      1222.984        18.296         1.648         9.753
  WS02001213WS02003059      1432.186      2357.286       119.728        14.674        73.972
  WS02001212WS02001213      1441.429      2372.458       120.503        14.769        74.452
  WS02001211WS02001212      1443.271      2375.458       120.663        14.789        74.551
  WS02003072WS02003073      2195.070      3740.404       147.960        17.569        89.947
  WS02003069WS02003072      2199.945      3748.349       148.368        17.619        90.200
  WS02003060WS02003069      2202.580      3752.792       148.546        17.640        90.308
  WS02003059WS02003060      1429.363      2352.561       119.518        14.649        73.844
  HS02004901HS02004770        10.269        19.476         0.195         0.015         0.091
  HS02004876HS02004881        37.316        72.575         0.843         0.062         0.416
  HS02004870HS02004876        28.159        54.625         0.678         0.051         0.338
  HS02004842HS02004848         5.467        10.277         0.115         0.008         0.053
  HS02004837HS02004842        10.074        17.584         0.584         0.067         0.347
  HS02004830HS02004837        65.638       112.702         4.557         0.546         2.785
  HS02004824HS02004830        66.388       113.904         4.628         0.555         2.829
  HS02004817HS02004824        88.205       156.973         5.083         0.584         3.051
  HS02004770HS02004777        39.293        75.461         0.819         0.055         0.377
  HS02004799HS02004480       131.402       245.354         3.680         0.335         1.932
  HS02004792HS02004799       119.080       220.650         3.497         0.327         1.853
  HS02004788HS02004792        68.394       126.852         2.388         0.235         1.309
  HS02004785HS02004788        40.731        77.756         0.969         0.074         0.471
  HS02004777HS02004785        40.058        76.663         0.909         0.067         0.434
  HS02004480HS02004478       165.937       312.566         4.243         0.374         2.195
  HS02004479HS02004480        38.142        72.969         0.884         0.079         0.462
  HS02004862HS02004870        21.015        40.115         0.536         0.043         0.270
  HS02004848HS02004852         8.057        15.279         0.167         0.011         0.077
  HS02004856HS02004862        14.071        27.339         0.284         0.019         0.133
  HS02004852HS02004856         8.064        15.290         0.167         0.011         0.077
  HS02004802HS02004478       102.882       186.882         5.162         0.575         3.054
  HS02004478WS02006287       268.236       498.504         9.362         0.945         5.224
  HS02004817HS02004807        86.886       154.857         4.956         0.568         2.972
  HS02004807HS02004802       103.109       187.236         5.194         0.580         3.075
  YS02001759YS02001757       287.760       521.840         5.800         0.402         2.837
  YS02001762YS02001759       167.873       305.937         3.529         0.248         1.743
  YS02001765YS02001762       168.855       308.455         3.566         0.251         1.764
  YS02001770YS02001767       171.332       315.146         3.454         0.231         1.680
  YS02001774YS02001770       226.490       431.595         4.406         0.293         2.132
  YS02001779YS02001774       225.951       430.485         4.505         0.308         2.200
  YS02001649YS02001757       349.123       627.994         7.044         0.483         3.391
  YS02001767YS02001765       170.476       312.157         3.611         0.255         1.787
  YS02006561YS02001783       940.196      1724.688        19.904         1.493         9.932
  YS02001783YS02001784       940.093      1724.539        19.900         1.493         9.930
  YS02001784YS02001785       947.429      1736.297        20.613         1.582        10.375
  YS02001788YS02001790       948.028      1737.287        20.685         1.591        10.421
  YS02001790YS02001791       949.067      1738.974        20.785         1.604        10.484
  YS02001791YS02001793       949.033      1738.927        20.782         1.603        10.482
  YS02001910YS02001907       330.088       599.162         8.227         0.641         4.250
  YS02001786YS02001788       947.617      1736.610        20.641         1.586        10.393
  YS02001915YS02001910       330.150       599.253         8.182         0.635         4.220
  YS02001918YS02001915       157.516       273.412         4.603         0.429         2.508
  YS02001923YS02001920       136.678       239.836         2.624         0.182         1.272
  YS02001926YS02001923       136.398       239.409         2.586         0.178         1.248
  YS02001929YS02001926       136.174       239.037         2.555         0.174         1.228
  YS02001920YS02001918       156.754       271.953         4.559         0.424         2.482
  YS02001629YS02163301       103.521       183.434         2.171         0.140         1.012
  YS02001619YS02001622       146.391       262.925         3.031         0.197         1.414
  YS02001622YS02001625       145.237       261.104         3.003         0.195         1.401
  YS02001625YS02001629       104.611       185.236         2.195         0.142         1.023
  YS02163301YS02001633       103.245       182.970         2.164         0.140         1.009
  YS02163601YS02164001       362.065       646.258         7.116         0.502         3.404
  YS02164001YS02001641       361.581       645.447         7.096         0.501         3.393
  YS02001641YS02001644       361.832       645.802         7.096         0.500         3.391
  YS02001647YS02001649       408.283       740.904         8.160         0.562         3.906
  YS02006553YS02006556       661.630      1208.166        14.305         1.100         7.213
  YS02006556YS02006558       661.643      1208.184        14.275         1.095         7.192
  YSB6556YSB1171              21.950        42.192         0.451         0.038         0.229
  YS02001907YS02006553       661.718      1208.347        14.319         1.101         7.222
  YS02006558YS02006561       940.152      1724.593        19.903         1.493         9.931
  YS02001633YS02163601       362.755       647.324         7.096         0.498         3.387
  YS02001644YS02001647       414.448       751.905         8.256         0.569         3.950
  YS02001745YS02001748       210.416       387.009         4.765         0.335         2.384
  YS02001748YS02001751       208.448       383.285         4.806         0.344         2.419
  YS02001751YS02001754       207.475       381.693         4.788         0.343         2.411
  YS02001754YS02001757       208.228       382.824         4.952         0.366         2.517
  YS02001882YS02001884         3.493         6.063         0.069         0.005         0.035
  YS02001884YS02001887         6.864        12.142         0.134         0.010         0.067
  YS02001890YS02001895       389.322       720.381         7.187         0.539         3.507
  YS02001895YS02001898       389.151       720.153         7.180         0.539         3.503
  YS02001898YS02001901       388.968       719.846         7.176         0.538         3.501
  YS02001901YS02001904       388.801       719.609         7.182         0.539         3.506
  YS02001904YS02001907       389.035       719.980         7.236         0.547         3.541
  YS02001887YS02001890       390.124       721.580         7.241         0.546         3.540
  YS02001652YS02001649       160.100       292.737         3.264         0.234         1.529
  YS02001655YS02001652       160.663       293.653         3.279         0.236         1.537
  YS02001658YS02001655       160.160       292.859         3.192         0.224         1.480
  YS02001661YS02001658       164.141       299.993         3.272         0.230         1.517
  YS02001664YS02001661       178.673       323.820         3.600         0.252         1.667
  YSB1154YSB6556              21.531        41.526         0.402         0.032         0.198
  YSB1174YSB1171              14.652        28.287         0.298         0.024         0.149
  YSB1171HS02004479           38.100        72.902         0.887         0.079         0.465
  HS02004881HS02006253        42.270        82.516         0.933         0.068         0.459
  YS02001793JiankangQianchi       949.081      1739.055        20.757         1.600        10.465
  YS02001757CaochengTiaoxuchi       492.065       883.114        10.516         0.763         5.190
  WSF200WS02003060           662.280      1222.934        18.314         1.651         9.764
  1                         2200.537      3748.595       148.631        17.655        90.373
  CC-Pump-1                  111.060       200.725         2.353         0.172         1.161
  CC-Pump-2                   50.953        92.170         1.079         0.079         0.533
  JK-Pump-1                  221.247       411.760         4.650         0.352         2.323
  JK-Pump-2                  503.686       937.407        10.587         0.801         5.289
  XR-Pump-1                  357.762       589.164        29.813         3.652        18.414
  XR-Pump-2                  357.762       589.164        29.813         3.652        18.414
  XR-Pump-3                  346.857       571.716        28.774         3.522        17.766
  XR-Pump-4                  346.857       571.716        28.774         3.522        17.766
  

  Analysis begun on:  Thu Jul 15 22:13:59 2021
  Analysis ended on:  Thu Jul 15 22:14:02 2021
  Total elapsed time: 00:00:03