
  EPA STORM WATER MANAGEMENT MODEL - VERSION 5.1 (Build 5.3.0.dev0)
  --------------------------------------------------------------

  WARNING 04: minimum elevation drop used for Conduit WS02004404WS02004405
  WARNING 03: negative offset ignored for Link YS02001904YS02001907
  
  *********************************************************
  NOTE: The summary statistics displayed in this report are
  based on results found at every computational time step,  
  not just on results from each reporting time step.
  *********************************************************
  
  ****************
  Analysis Options
  ****************
  Flow Units ............... LPS
  Process Models:
    Rainfall/Runoff ........ YES
    RDII ................... NO
    Snowmelt ............... NO
    Groundwater ............ NO
    Flow Routing ........... YES
    Ponding Allowed ........ NO
    Water Quality .......... YES
  Infiltration Method ...... HORTON
  Flow Routing Method ...... DYNWAVE
  Surcharge Method ......... EXTRAN
  Starting Date ............ 08/28/2015 08:00:00
  Ending Date .............. 08/28/2015 15:50:00
  Antecedent Dry Days ...... 8.0
  Report Time Step ......... 00:01:00
  Wet Time Step ............ 00:01:00
  Dry Time Step ............ 00:01:00
  Routing Time Step ........ 5.00 sec
  Variable Time Step ....... YES
  Maximum Trials ........... 8
  Number of Threads ........ 4
  Head Tolerance ........... 0.001500 m
  
  
  **************************        Volume         Depth
  Runoff Quantity Continuity     hectare-m            mm
  **************************     ---------       -------
  Total Precipitation ......         5.556        12.164
  Evaporation Loss .........         0.000         0.000
  Infiltration Loss ........         1.002         2.194
  Surface Runoff ...........         3.688         8.075
  Final Storage ............         0.866         1.897
  Continuity Error (%) .....        -0.019
  
  
  **************************           COD            SS            TN            TP         NH4-N
  Runoff Quality Continuity             kg            kg            kg            kg            kg
  **************************    ----------    ----------    ----------    ----------    ----------
  Initial Buildup ..........     41378.656     70582.865      1804.177       168.684      1032.807
  Surface Buildup ..........        19.275        34.271         2.335         0.213         1.362
  Wet Deposition ...........         0.000         0.000         0.000         0.000         0.000
  Sweeping Removal .........         0.000         0.000         0.000         0.000         0.000
  Infiltration Loss ........        84.023       157.502         1.599         0.111         0.761
  BMP Removal ..............         0.000         0.000         0.000         0.000         0.000
  Surface Runoff ...........      3122.074      5752.154        60.620         4.098        28.771
  Remaining Buildup ........     38190.779     64705.500      1744.271       164.686      1004.628
  Continuity Error (%) .....         0.003         0.003         0.001         0.001         0.001
  
  
  **************************        Volume        Volume
  Flow Routing Continuity        hectare-m      10^6 ltr
  **************************     ---------     ---------
  Dry Weather Inflow .......         0.616         6.165
  Wet Weather Inflow .......         3.687        36.871
  Groundwater Inflow .......         0.000         0.000
  RDII Inflow ..............         0.000         0.000
  External Inflow ..........         0.102         1.024
  External Outflow .........         1.869        18.688
  Flooding Loss ............         2.118        21.183
  Evaporation Loss .........         0.000         0.000
  Exfiltration Loss ........         0.000         0.000
  Initial Stored Volume ....         0.076         0.761
  Final Stored Volume ......         0.614         6.138
  Continuity Error (%) .....        -2.653
  
  
  **************************           COD            SS            TN            TP         NH4-N
  Quality Routing Continuity            kg            kg            kg            kg            kg
  **************************    ----------    ----------    ----------    ----------    ----------
  Dry Weather Inflow .......      1541.201      2465.922       147.955        18.494        92.472
  Wet Weather Inflow .......      3121.360      5750.954        60.605         4.097        28.764
  Groundwater Inflow .......         0.000         0.000         0.000         0.000         0.000
  RDII Inflow ..............         0.000         0.000         0.000         0.000         0.000
  External Inflow ..........       183.418       293.469        17.608         2.201        11.005
  External Outflow .........      2250.199      3834.191       150.752        17.879        91.594
  Flooding Loss ............      1936.108      3548.597        48.724         4.159        25.424
  Exfiltration Loss ........         0.000         0.000         0.000         0.000         0.000
  Mass Reacted .............         0.000         0.000         0.000         0.000         0.000
  Initial Stored Mass ......         0.000         0.000         0.000         0.000         0.000
  Final Stored Mass ........       521.669       892.295        23.118         2.463        13.379
  Continuity Error (%) .....         2.848         2.764         1.581         1.177         1.395
  
  
  *************************
  Highest Continuity Errors
  *************************
  Node HS02004842 (14.53%)
  Node JK-storage (-11.72%)
  Node YS02001884 (9.97%)
  Node YSB1171 (2.74%)
  Node HS02004817 (2.73%)
  
  
  ***************************
  Time-Step Critical Elements
  ***************************
  Link WS02006252WS02006251 (55.26%)
  Link WS02006280WS02006229 (13.15%)
  Link WS02006238WS02006235 (8.98%)
  Link YS02006556YS02006558 (4.16%)
  Link YS02001793JiankangQianchi (3.70%)
  
  
  ********************************
  Highest Flow Instability Indexes
  ********************************
  Link WS02006113WS02006111 (41)
  Link YS02163301YS02001633 (39)
  Link YS02163601YS02164001 (39)
  Link YS02001619YS02001622 (38)
  Link YS02001629YS02163301 (38)
  
  
  *************************
  Routing Time Step Summary
  *************************
  Minimum Time Step           :     0.44 sec
  Average Time Step           :     1.35 sec
  Maximum Time Step           :     5.00 sec
  Percent in Steady State     :    -0.00
  Average Iterations per Step :     4.31
  Percent Not Converging      :    19.13
  
  
  ***************************
  Subcatchment Runoff Summary
  ***************************
  
  ------------------------------------------------------------------------------------------------------------------------------
                            Total      Total      Total      Total     Imperv       Perv      Total       Total     Peak  Runoff
                           Precip      Runon       Evap      Infil     Runoff     Runoff     Runoff      Runoff   Runoff   Coeff
  Subcatchment                 mm         mm         mm         mm         mm         mm         mm    10^6 ltr      LPS
  ------------------------------------------------------------------------------------------------------------------------------
  sub0                      12.16       0.00       0.00       0.65      11.27       0.20      11.47        0.01     1.99   0.943
  sub1                      12.16       0.00       0.00       1.12      10.73       0.22      10.95        0.07    14.96   0.900
  sub2                      12.16       0.00       0.00       4.23       7.58       0.27       7.85        0.07    15.08   0.646
  sub3                      12.16       0.00       0.00       4.29       7.54       0.21       7.75        0.17    34.61   0.637
  sub4                      12.16       0.00       0.00       1.19      10.57       0.14      10.71        0.22    42.34   0.881
  sub5                      12.16       0.00       0.00       0.69      11.21       0.16      11.38        0.13    26.18   0.935
  sub7                      12.16       0.00       0.00       0.88      11.01       0.22      11.22        0.04     7.95   0.923
  sub8                      12.16       0.00       0.00       0.89      11.00       0.21      11.20        0.07    14.89   0.921
  sub9                      12.16       0.00       0.00       0.89      10.99       0.21      11.20        0.05    11.18   0.921
  sub10                     12.16       0.00       0.00       0.79      11.10       0.18      11.28        0.12    25.49   0.928
  sub11                     12.16       0.00       0.00       0.78      11.12       0.19      11.31        0.13    27.35   0.930
  sub12                     12.16       0.00       0.00       1.27      10.53       0.31      10.85        0.09    20.52   0.892
  sub14                     12.16       0.00       0.00       0.89      10.99       0.20      11.20        0.11    22.08   0.920
  sub15                     12.16       0.00       0.00       3.28       8.45       0.37       8.82        0.15    32.49   0.725
  sub16                     12.16       0.00       0.00       3.51       8.11       0.50       8.61        0.09    20.36   0.708
  sub17                     12.16       0.00       0.00       3.41       8.23       0.48       8.71        0.07    16.72   0.716
  sub22                     12.16       0.00       0.00       4.80       6.89       0.43       7.32        0.46   102.62   0.602
  sub23                     12.16       0.00       0.00       4.05       7.62       0.45       8.07        0.38    85.35   0.663
  sub60                     12.16       0.00       0.00       1.42       8.82       0.04       8.86        2.69   336.84   0.729
  sub61                     12.16       0.00       0.00       2.01       8.94       0.06       9.00        2.78   399.45   0.740
  sub62                     12.16       0.00       0.00       0.92       9.73       0.05       9.78        3.01   415.79   0.804
  sub63                     12.16       0.00       0.00       3.46       7.82       0.06       7.88        2.39   361.21   0.648
  sub64                     12.16       0.00       0.00       1.78       8.47       0.04       8.51        2.59   320.97   0.699
  sub65                     12.16       0.00       0.00       1.54       8.61       0.04       8.65        2.66   326.54   0.711
  sub66                     12.16       0.00       0.00       3.49       7.26       0.04       7.30        2.24   290.53   0.600
  sub67                     12.16       0.00       0.00       0.91      10.24       0.07      10.31        3.18   494.23   0.848
  sub68                     12.16       0.00       0.00       1.64       9.40       0.06       9.46        2.91   432.52   0.778
  sub69                     12.16       0.00       0.00       1.73       9.72       0.09       9.82        2.29   383.95   0.807
  sub70                     12.16      10.02       0.00       6.98      13.09       0.56      13.65        3.12   394.93   0.615
  sub71                     12.16       0.00       0.00       0.93       9.48       0.05       9.53        2.25   296.34   0.783
  sub72                     12.16       0.00       0.00       0.83       7.62       0.02       7.64        1.56   151.13   0.628
  1                         12.16      13.29       0.00       1.37      14.64       3.94      18.57        4.36   399.24   0.730
  2                         12.16       0.00       0.00       3.02       2.89       1.65       4.55        1.82   245.52   0.374
  
  
  ****************************
  Subcatchment Washoff Summary
  ****************************
  
  ------------------------------------------------------------------------------------------
                                 COD            SS            TN            TP         NH4-N
  Subcatchment                    kg            kg            kg            kg            kg
  ------------------------------------------------------------------------------------------
  sub0                         2.176         4.147         0.037         0.003         0.018
  sub1                         9.268        18.138         0.173         0.012         0.083
  sub2                         5.563        10.570         0.119         0.008         0.054
  sub3                        13.747        25.918         0.288         0.019         0.132
  sub4                        21.530        42.606         0.429         0.026         0.205
  sub5                        21.300        41.103         0.378         0.029         0.183
  sub7                         4.748         9.424         0.090         0.006         0.043
  sub8                         7.142        14.500         0.143         0.008         0.069
  sub9                         6.100        12.212         0.118         0.007         0.057
  sub10                       17.532        34.266         0.321         0.023         0.155
  sub11                       17.086        33.770         0.320         0.022         0.154
  sub12                       14.392        27.890         0.260         0.019         0.125
  sub14                       13.021        25.823         0.247         0.016         0.119
  sub15                       16.182        30.744         0.313         0.023         0.146
  sub16                       10.318        19.555         0.197         0.015         0.092
  sub17                        9.471        17.789         0.175         0.014         0.082
  sub22                       48.821        90.813         0.932         0.070         0.434
  sub23                       29.138        56.181         0.627         0.041         0.287
  sub60                      203.703       376.194         4.083         0.248         1.956
  sub61                      251.300       461.579         4.699         0.320         2.261
  sub62                      262.762       491.326         5.157         0.324         2.474
  sub63                      185.047       334.594         3.739         0.261         1.731
  sub64                      253.867       452.095         4.687         0.339         2.235
  sub65                      260.106       465.192         4.834         0.344         2.309
  sub66                      146.558       263.078         3.037         0.197         1.417
  sub67                      388.205       718.566         6.963         0.510         3.363
  sub68                      276.714       513.393         5.318         0.356         2.539
  sub69                      247.676       464.012         4.658         0.325         2.225
  sub70                      413.256       778.342         8.287         0.572         3.877
  sub71                      173.740       327.842         3.597         0.206         1.720
  sub72                      136.329       239.316         2.558         0.174         1.230
  1                          280.724       531.718         5.751         0.398         2.660
  2                           35.485        61.812         1.030         0.062         0.437
  ------------------------------------------------------------------------------------------
  System                    3783.006      6994.507        73.566         4.996        34.873
  
  
  ******************
  Node Depth Summary
  ******************
  
  ---------------------------------------------------------------------------------
                                 Average  Maximum  Maximum  Time of Max    Reported
                                   Depth    Depth      HGL   Occurrence   Max Depth
  Node                 Type       Meters   Meters   Meters  days hr:min      Meters
  ---------------------------------------------------------------------------------
  WS02001211           JUNCTION     0.77     0.81     5.65     0  03:09        0.81
  WS02001212           JUNCTION     0.48     0.54     5.60     0  03:08        0.54
  WS02001213           JUNCTION     0.71     0.80     5.56     0  03:08        0.80
  WS02003069           JUNCTION     0.50     0.65     5.23     0  03:07        0.65
  WS02003072           JUNCTION     0.56     0.70     5.07     0  03:08        0.70
  WS02003073           JUNCTION     0.34     0.43     4.50     0  03:08        0.43
  WS02003060           JUNCTION     0.44     0.57     5.50     0  03:06        0.57
  WS02003066           JUNCTION     0.23     0.34     5.89     0  03:06        0.34
  WS02003059           JUNCTION     0.76     0.85     5.54     0  03:07        0.85
  WS02003067           JUNCTION     0.56     0.76     6.08     0  03:05        0.76
  WS02004401           JUNCTION     0.68     1.03     7.03     0  03:02        1.03
  WS02004402           JUNCTION     0.71     1.04     7.00     0  03:02        1.04
  WS02004403           JUNCTION     0.73     1.04     6.97     0  03:03        1.04
  WS02004404           JUNCTION     0.80     1.10     6.95     0  03:02        1.10
  WS02004406           JUNCTION     0.81     1.06     6.89     0  03:03        1.06
  WS02004409           JUNCTION     0.49     0.79     6.56     0  03:05        0.79
  WS02004410           JUNCTION     0.51     0.80     6.52     0  03:05        0.79
  WS02004411           JUNCTION     0.52     0.79     6.47     0  03:05        0.79
  WS02004412           JUNCTION     0.54     0.79     6.43     0  03:05        0.79
  WS02004413           JUNCTION     0.69     0.94     6.41     0  03:05        0.94
  WS02004405           JUNCTION     0.80     1.08     6.93     0  03:03        1.08
  WS02006109           JUNCTION     0.77     1.14     7.76     0  03:01        1.14
  WS02006110           JUNCTION     0.76     1.03     7.62     0  02:59        1.03
  WS02006111           JUNCTION     0.22     0.45     7.15     0  03:03        0.45
  WS02006112           JUNCTION     0.85     1.26     7.15     0  03:03        1.26
  WS02006113           JUNCTION     0.34     0.52     7.42     0  02:59        0.52
  WS02006115           JUNCTION     0.57     0.96     7.10     0  03:02        0.96
  WS02006116           JUNCTION     0.65     1.03     7.07     0  03:02        1.03
  WS02006230           JUNCTION     0.76     1.25     7.99     0  03:02        1.24
  WS02006231           JUNCTION     0.50     0.91     8.03     0  03:02        0.90
  WS02006232           JUNCTION     0.64     1.08     8.12     0  04:09        1.07
  WS02006234           JUNCTION     0.56     1.09     8.24     0  04:09        1.08
  WS02006235           JUNCTION     0.60     1.17     8.34     0  04:09        1.17
  WS02006238           JUNCTION     0.62     1.21     8.35     0  04:09        1.19
  WS02006240           JUNCTION     0.51     1.15     8.44     0  04:09        1.14
  WS02006242           JUNCTION     0.55     1.23     8.50     0  05:31        1.22
  WS02006243           JUNCTION     0.43     1.14     8.56     0  04:09        1.12
  WS02006245           JUNCTION     0.40     1.13     8.62     0  04:09        1.10
  WS02006247           JUNCTION     0.41     1.15     8.65     0  04:09        1.13
  WS02006248           JUNCTION     0.35     1.09     8.68     0  04:09        1.07
  WS02006249           JUNCTION     0.37     1.09     8.69     0  04:09        1.09
  WS02006239           JUNCTION     0.57     1.19     8.40     0  04:09        1.17
  WS02006251           JUNCTION     0.34     1.60     9.27     0  04:09        1.12
  WS02006252           JUNCTION     0.23     1.17     9.41     0  04:09        0.67
  WS02006253           JUNCTION     0.38     1.59     9.23     0  04:09        1.15
  WS02006256           JUNCTION     1.79     2.35     9.28     0  00:00        2.35
  WS02004138           JUNCTION     0.19     0.20     7.45     0  00:00        0.19
  WS02004139           JUNCTION     0.71     0.76     5.67     0  03:09        0.76
  WS02004407           JUNCTION     0.22     0.34     6.66     0  03:04        0.34
  WS02006228           JUNCTION     0.78     1.23     7.88     0  03:02        1.22
  WS02006229           JUNCTION     0.76     1.26     7.95     0  03:02        1.25
  WS02006280           JUNCTION     0.07     0.20     8.47     0  03:02        0.20
  WS02006284           JUNCTION     0.37     0.56     8.96     0  03:02        0.56
  WS02006287           JUNCTION     0.10     0.30     9.25     0  03:01        0.30
  WSF200               JUNCTION     0.21     0.37     5.60     0  03:06        0.37
  HS02004901           JUNCTION     0.13     0.29    10.12     0  03:01        0.29
  HS02004881           JUNCTION     0.01     0.04     9.07     0  03:01        0.04
  HS02004876           JUNCTION     0.04     0.12     9.15     0  03:01        0.12
  HS02004870           JUNCTION     0.02     0.07     9.35     0  03:01        0.07
  HS02004862           JUNCTION     0.02     0.08     9.46     0  03:01        0.08
  HS02004856           JUNCTION     0.08     0.13     9.55     0  03:01        0.13
  HS02004852           JUNCTION     0.01     0.05     9.56     0  03:01        0.05
  HS02004848           JUNCTION     0.01     0.05     9.65     0  03:01        0.05
  HS02004842           JUNCTION     0.33     0.38     9.65     0  03:01        0.38
  HS02004837           JUNCTION     0.03     0.07     9.65     0  03:01        0.07
  HS02004830           JUNCTION     0.04     0.08     9.55     0  03:01        0.08
  HS02004824           JUNCTION     0.02     0.06     9.47     0  03:01        0.06
  HS02004817           JUNCTION     0.44     0.61     9.45     0  03:01        0.61
  HS02004807           JUNCTION     0.13     0.28     9.45     0  03:01        0.28
  HS02004802           JUNCTION     0.17     0.31     9.44     0  03:01        0.31
  HS02004799           JUNCTION     0.12     0.35     9.56     0  03:01        0.35
  HS02004792           JUNCTION     0.04     0.15     9.67     0  03:01        0.15
  HS02004788           JUNCTION     0.03     0.11    10.01     0  03:01        0.11
  HS02004785           JUNCTION     0.05     0.18    10.09     0  03:01        0.18
  HS02004777           JUNCTION     0.15     0.31    10.11     0  03:01        0.31
  HS02004770           JUNCTION     0.12     0.29    10.12     0  03:01        0.29
  HS02004480           JUNCTION     0.08     0.28     9.52     0  03:01        0.28
  HS02004479           JUNCTION     0.12     0.32     9.52     0  03:01        0.32
  HS02004478           JUNCTION     0.06     0.20     9.42     0  03:01        0.20
  YS02001745           JUNCTION     0.73     0.93     8.45     0  03:01        0.93
  YS02001748           JUNCTION     1.12     1.45     8.53     0  02:28        1.37
  YS02001751           JUNCTION     1.31     1.58     8.46     0  02:18        1.56
  YS02001754           JUNCTION     1.56     1.84     8.44     0  03:09        1.83
  YS02001762           JUNCTION     1.76     2.04     8.44     0  03:09        2.02
  YS02001765           JUNCTION     1.71     1.99     8.44     0  02:58        1.97
  YS02001767           JUNCTION     1.67     1.95     8.44     0  02:59        1.93
  YS02001770           JUNCTION     1.67     1.93     8.42     0  03:00        1.92
  YS02001774           JUNCTION     1.74     1.98     8.40     0  03:00        1.97
  YS02001779           JUNCTION     1.48     1.68     8.37     0  02:37        1.68
  YS02001882           JUNCTION     0.54     1.62     8.33     0  03:00        1.61
  YS02001884           JUNCTION     0.63     1.72     8.34     0  02:59        1.71
  YS02001759           JUNCTION     1.79     2.08     8.44     0  03:12        2.07
  YS02001887           JUNCTION     0.71     1.80     8.34     0  02:59        1.79
  YS02001890           JUNCTION     0.74     1.81     8.32     0  02:55        1.81
  YS02001898           JUNCTION     0.51     1.56     8.29     0  02:59        1.55
  YS02001901           JUNCTION     0.63     1.67     8.28     0  02:55        1.67
  YS02001904           JUNCTION     0.60     1.64     8.27     0  02:58        1.63
  YS02001907           JUNCTION     0.93     1.96     8.25     0  02:46        1.96
  YS02001910           JUNCTION     0.72     1.77     8.28     0  02:47        1.76
  YS02001915           JUNCTION     0.52     1.57     8.29     0  02:47        1.57
  YS02001918           JUNCTION     0.27     1.24     8.30     0  02:47        1.23
  YS02001619           JUNCTION     1.27     1.53     8.46     0  02:24        1.47
  YS02001629           JUNCTION     1.62     1.85     8.40     0  02:24        1.84
  YS02001641           JUNCTION     1.72     1.93     8.37     0  02:45        1.93
  YS02001644           JUNCTION     1.72     1.92     8.35     0  02:34        1.92
  YS02001652           JUNCTION     1.57     2.10     8.70     0  02:19        1.86
  YS02001655           JUNCTION     1.33     2.12     8.97     0  02:19        1.62
  YS02001920           JUNCTION     0.37     1.31     8.32     0  02:47        1.30
  YS02001923           JUNCTION     0.21     1.06     8.32     0  02:47        1.05
  YS02001926           JUNCTION     0.27     0.87     8.32     0  02:47        0.87
  YS02001929           JUNCTION     0.15     0.63     8.32     0  02:47        0.62
  YS02001658           JUNCTION     1.07     2.04     9.18     0  04:05        1.37
  YS02001661           JUNCTION     0.83     1.95     9.35     0  04:05        1.26
  YS02001664           JUNCTION     0.37     0.57     8.50     0  02:44        0.57
  YS02001622           JUNCTION     1.29     1.54     8.44     0  02:24        1.49
  YS02001633           JUNCTION     1.71     1.94     8.40     0  02:36        1.94
  YS02001649           JUNCTION     1.77     2.05     8.44     0  02:39        2.04
  YS02001757           JUNCTION     1.89     2.18     8.44     0  03:09        2.17
  YS02001895           JUNCTION     0.50     1.56     8.31     0  02:58        1.55
  YS02001625           JUNCTION     1.57     1.78     8.38     0  02:24        1.78
  YS02163301           JUNCTION     1.65     1.88     8.40     0  02:56        1.87
  YS02163601           JUNCTION     1.76     1.99     8.38     0  03:09        1.98
  YS02164001           JUNCTION     1.70     1.92     8.38     0  07:01        1.91
  YS02001647           JUNCTION     1.55     1.80     8.41     0  02:45        1.79
  YSB1154              JUNCTION     0.26     0.47     9.52     0  03:01        0.47
  YSB6556              JUNCTION     0.15     0.35     9.52     0  03:01        0.35
  YSB1174              JUNCTION     0.21     0.41     9.52     0  03:01        0.41
  YSB1171              JUNCTION     0.41     0.62     9.52     0  03:01        0.62
  YS02006553           JUNCTION     0.94     1.97     8.25     0  02:59        1.96
  YS02006561           JUNCTION     0.30     1.06     7.72     0  02:59        1.05
  YS02006556           JUNCTION     0.90     1.92     8.23     0  03:00        1.91
  YS02006558           JUNCTION     0.94     1.96     8.23     0  02:59        1.95
  YS02001783           JUNCTION     0.51     1.45     7.59     0  03:01        1.44
  YS02001784           JUNCTION     0.53     1.39     7.46     0  03:00        1.38
  YS02001786           JUNCTION     0.47     1.29     7.32     0  02:19        1.22
  YS02001788           JUNCTION     0.40     1.26     7.24     0  02:19        1.08
  YS02001790           JUNCTION     0.51     1.69     7.33     0  02:18        1.24
  YS02001791           JUNCTION     0.46     2.72     8.19     0  02:18        1.23
  YS02001793           JUNCTION     0.63     2.53     7.36     0  02:18        1.79
  WSC                  OUTFALL      0.34     0.43     1.10     0  03:09        0.43
  JK-storage           STORAGE      2.64     5.80     6.60     0  02:19        5.80
  CC-storage           STORAGE      1.15     1.44     8.44     0  03:07        1.44
  XR-storage           STORAGE      6.40     7.72     5.72     0  03:01        7.72
  
  
  *******************
  Node Inflow Summary
  *******************
  
  -------------------------------------------------------------------------------------------------
                                  Maximum  Maximum                  Lateral       Total        Flow
                                  Lateral    Total  Time of Max      Inflow      Inflow     Balance
                                   Inflow   Inflow   Occurrence      Volume      Volume       Error
  Node                 Type           LPS      LPS  days hr:min    10^6 ltr    10^6 ltr     Percent
  -------------------------------------------------------------------------------------------------
  WS02001211           JUNCTION      7.35   389.64     0  03:17       0.207        10.3       0.387
  WS02001212           JUNCTION      0.00   391.91     0  04:30           0        10.2       0.228
  WS02001213           JUNCTION      0.00   394.19     0  04:30           0        10.2       0.265
  WS02003069           JUNCTION      0.32  1116.15     0  03:07     0.00902        18.7       0.145
  WS02003072           JUNCTION      0.00  1115.95     0  03:07           0        18.7       0.184
  WS02003073           JUNCTION      1.82  1117.76     0  03:08      0.0514        18.7       0.207
  WS02003060           JUNCTION     16.53  1115.99     0  03:06       0.466        18.8       0.138
  WS02003066           JUNCTION      0.00   716.34     0  03:06           0        8.16       0.033
  WS02003059           JUNCTION      0.00   397.91     0  04:30           0        10.2       0.369
  WS02003067           JUNCTION      0.00   716.18     0  03:05           0        8.17       0.075
  WS02004401           JUNCTION      0.00   717.91     0  03:03           0        8.31       0.156
  WS02004402           JUNCTION      0.00   717.77     0  03:03           0         8.3       0.155
  WS02004403           JUNCTION      0.00   717.80     0  03:04           0        8.29       0.147
  WS02004404           JUNCTION      0.16   718.08     0  03:04     0.00457        8.28       0.117
  WS02004406           JUNCTION      0.00   718.26     0  03:04           0        8.26       0.290
  WS02004409           JUNCTION      0.00   718.18     0  03:04           0        8.23       0.088
  WS02004410           JUNCTION      0.00   717.23     0  03:04           0        8.22       0.114
  WS02004411           JUNCTION      0.00   716.63     0  03:05           0        8.21       0.127
  WS02004412           JUNCTION      0.00   716.31     0  03:05           0         8.2       0.152
  WS02004413           JUNCTION      0.00   716.21     0  03:05           0        8.19       0.247
  WS02004405           JUNCTION      0.04   718.18     0  03:04     0.00107        8.27       0.181
  WS02006109           JUNCTION      1.23   707.31     0  03:02      0.0347         8.3       0.092
  WS02006110           JUNCTION      0.00   707.25     0  03:02           0        8.29       0.113
  WS02006111           JUNCTION      0.00   719.25     0  02:59           0        8.28       0.003
  WS02006112           JUNCTION     16.72   719.08     0  03:02      0.0747        8.35       0.212
  WS02006113           JUNCTION      0.00   707.04     0  03:02           0        8.28       0.043
  WS02006115           JUNCTION      0.00   719.32     0  03:02           0        8.33       0.115
  WS02006116           JUNCTION      0.00   719.02     0  03:03           0        8.32       0.125
  WS02006230           JUNCTION     10.28   533.38     0  06:40        0.29        6.12       0.143
  WS02006231           JUNCTION      0.00   523.30     0  06:40           0        5.82      -0.060
  WS02006232           JUNCTION      0.00   523.03     0  06:40           0        5.83       0.114
  WS02006234           JUNCTION      0.00   523.26     0  06:40           0        5.83      -0.028
  WS02006235           JUNCTION      0.00   524.38     0  06:40           0        5.91       0.068
  WS02006238           JUNCTION      0.00   328.28     0  06:40           0        2.53      -0.130
  WS02006240           JUNCTION      0.00   338.22     0  06:02           0        2.44       0.036
  WS02006242           JUNCTION      0.00   347.26     0  06:01           0        2.41       0.049
  WS02006243           JUNCTION      0.00   356.10     0  06:01           0         2.4      -0.288
  WS02006245           JUNCTION      0.00   361.49     0  06:01           0         2.4       0.323
  WS02006247           JUNCTION      0.00   366.16     0  06:01           0         2.4       0.050
  WS02006248           JUNCTION      0.00   370.71     0  06:00           0         2.4      -0.112
  WS02006249           JUNCTION      0.00   428.23     0  06:40           0        2.46       0.159
  WS02006239           JUNCTION      0.00   328.09     0  06:40           0        2.48      -0.110
  WS02006251           JUNCTION      0.08   412.99     0  06:40     0.00217        2.51      -0.029
  WS02006252           JUNCTION      0.00   400.00     0  06:40           0        2.04       0.004
  WS02006253           JUNCTION      1.99   121.83     0  05:31     0.00928       0.468      -0.005
  WS02006256           JUNCTION      0.00   983.00     0  00:00           0        9.66      -0.013
  WS02004138           JUNCTION      0.00   380.00     0  00:00           0        10.1       0.062
  WS02004139           JUNCTION      0.32   396.51     0  00:00     0.00905        10.1       0.442
  WS02004407           JUNCTION      0.00   718.41     0  03:04           0        8.23       0.035
  WS02006228           JUNCTION      0.00   705.97     0  03:02           0        8.27       0.081
  WS02006229           JUNCTION      0.00   704.81     0  03:02           0        8.28       0.104
  WS02006280           JUNCTION      0.00   413.62     0  03:02           0        2.17       0.003
  WS02006284           JUNCTION      0.10   413.57     0  03:02      0.0027        2.17       0.040
  WS02006287           JUNCTION      0.00   413.22     0  03:01           0        2.17       0.033
  WSF200               JUNCTION      0.00   716.39     0  03:06           0        8.16       0.025
  HS02004901           JUNCTION     20.36    20.36     0  03:01      0.0902      0.0904       1.991
  HS02004881           JUNCTION      7.95    84.19     0  03:01      0.0378        0.41       0.064
  HS02004876           JUNCTION     14.96    76.75     0  03:01      0.0728       0.373       0.148
  HS02004870           JUNCTION     14.89    62.15     0  03:01      0.0716         0.3       0.038
  HS02004862           JUNCTION     15.28    47.68     0  03:01      0.0788       0.229       0.077
  HS02004856           JUNCTION     11.18    32.72     0  03:01      0.0539       0.152       0.963
  HS02004852           JUNCTION      0.00    21.94     0  03:01           0      0.0979       0.059
  HS02004848           JUNCTION     34.61    34.61     0  03:01       0.174       0.174       0.029
  HS02004842           JUNCTION      0.00    12.41     0  03:01           0      0.0895      16.997
  HS02004837           JUNCTION     31.84    43.95     0  03:01       0.303        0.38       0.215
  HS02004830           JUNCTION      0.15    43.85     0  03:01     0.00423        0.37       0.334
  HS02004824           JUNCTION     42.39    85.90     0  03:01       0.225       0.594       0.092
  HS02004817           JUNCTION      0.60    86.28     0  03:01      0.0169        0.61       2.809
  HS02004807           JUNCTION     27.35   112.32     0  03:01       0.131       0.726       0.605
  HS02004802           JUNCTION      0.00   111.37     0  03:01           0       0.723       0.549
  HS02004799           JUNCTION     22.08   258.93     0  03:01       0.107        1.24       0.223
  HS02004792           JUNCTION    102.90   238.01     0  03:01        0.47        1.14       0.037
  HS02004788           JUNCTION     34.16   135.94     0  03:01       0.199       0.669       0.059
  HS02004785           JUNCTION      0.15   103.52     0  03:01     0.00423       0.471       0.106
  HS02004777           JUNCTION      0.03   104.16     0  03:01    0.000846       0.472       1.115
  HS02004770           JUNCTION     85.35   105.11     0  03:01       0.385       0.473       0.660
  HS02004480           JUNCTION      0.00   302.45     0  03:01           0        1.46       0.076
  HS02004479           JUNCTION      0.00    44.91     0  03:02           0       0.232       0.318
  HS02004478           JUNCTION      0.00   413.09     0  03:01           0        2.17       0.014
  YS02001745           JUNCTION    336.84   376.02     0  02:26        2.69        2.69       0.421
  YS02001748           JUNCTION      0.04   542.02     0  02:26     0.00127        2.68       0.804
  YS02001751           JUNCTION      0.01   341.37     0  03:01     0.00031        2.65       0.897
  YS02001754           JUNCTION      0.26   341.32     0  03:01     0.00733        2.64       0.946
  YS02001762           JUNCTION      0.00   290.77     0  02:38           0        2.02       1.057
  YS02001765           JUNCTION      0.00   291.07     0  02:39           0        2.02       1.225
  YS02001767           JUNCTION      0.54   291.65     0  02:39      0.0151        2.05       1.770
  YS02001770           JUNCTION    415.94   621.95     0  03:08        3.01        3.64       0.875
  YS02001774           JUNCTION      0.00   622.59     0  03:09           0         2.2       1.148
  YS02001779           JUNCTION      0.01   622.99     0  03:09    0.000141        2.17       0.719
  YS02001882           JUNCTION      0.00    13.72     0  03:59           0       0.019      11.482
  YS02001884           JUNCTION      0.00    23.17     0  02:21           0      0.0573      11.079
  YS02001759           JUNCTION    399.49   572.77     0  02:39        2.78        4.14       0.556
  YS02001887           JUNCTION    494.68   495.19     0  03:01        3.19        3.23       0.252
  YS02001890           JUNCTION      0.00   495.06     0  03:00           0        3.18       0.281
  YS02001898           JUNCTION      0.00   495.14     0  03:01           0        3.16       0.081
  YS02001901           JUNCTION      0.00   495.29     0  03:01           0        3.16       0.208
  YS02001904           JUNCTION      0.00   494.92     0  03:01           0        3.16       0.179
  YS02001907           JUNCTION      0.00   949.89     0  03:01           0        7.02       0.342
  YS02001910           JUNCTION      0.00   454.81     0  03:01           0        3.88       0.292
  YS02001915           JUNCTION    296.36   454.63     0  03:01        2.25        3.89       0.146
  YS02001918           JUNCTION      0.00   210.92     0  03:29           0        1.64       0.071
  YS02001619           JUNCTION    290.53   290.53     0  03:01        2.24        2.24       0.553
  YS02001629           JUNCTION      0.00   190.40     0  02:17           0        1.69       1.733
  YS02001641           JUNCTION      0.00   397.43     0  02:35           0        4.25       0.501
  YS02001644           JUNCTION    321.01  1397.33     0  03:01        2.59        10.8       0.252
  YS02001652           JUNCTION      0.00   372.69     0  03:01           0        2.34       1.007
  YS02001655           JUNCTION      0.15   371.96     0  03:01     0.00434        2.36       1.038
  YS02001920           JUNCTION      2.87   194.24     0  03:29      0.0809        1.63       0.158
  YS02001923           JUNCTION      0.04   173.21     0  03:29     0.00106        1.55       0.056
  YS02001926           JUNCTION      0.05   156.24     0  03:01     0.00147        1.56       0.209
  YS02001929           JUNCTION    151.13   151.13     0  03:01        1.56        1.56       0.040
  YS02001658           JUNCTION      0.00   592.73     0  02:23           0        2.39       0.910
  YS02001661           JUNCTION      0.00   614.26     0  02:42           0        2.72      -0.033
  YS02001664           JUNCTION    361.21   361.21     0  03:01        2.38        2.71       0.244
  YS02001622           JUNCTION      0.00   291.13     0  03:01           0        2.22       1.447
  YS02001633           JUNCTION    326.74   398.08     0  02:35        2.66        4.31       0.752
  YS02001649           JUNCTION      0.00   825.04     0  02:35           0        6.38       0.582
  YS02001757           JUNCTION      0.00  1577.01     0  02:35           0        8.78       1.061
  YS02001895           JUNCTION      0.00   495.09     0  03:01           0        3.17       0.152
  YS02001625           JUNCTION      0.00   290.74     0  03:01           0        2.19       1.793
  YS02163301           JUNCTION      0.00   212.22     0  02:25           0        1.67       1.468
  YS02163601           JUNCTION      0.11   398.13     0  02:35      0.0031        4.27       0.705
  YS02164001           JUNCTION      0.00   398.04     0  02:35           0        4.25       0.473
  YS02001647           JUNCTION      0.00   734.35     0  03:09           0        5.63       0.503
  YSB1154              JUNCTION     26.18    26.18     0  03:01       0.129        0.13       1.131
  YSB6556              JUNCTION      0.00    25.82     0  03:01           0        0.13       0.969
  YSB1174              JUNCTION     20.52    20.52     0  03:01      0.0948      0.0953       1.369
  YSB1171              JUNCTION      0.00    45.30     0  03:01           0       0.231       2.821
  YS02006553           JUNCTION      0.00   708.49     0  03:32           0         6.6       0.235
  YS02006561           JUNCTION      0.00  1019.86     0  02:46           0        9.48       0.006
  YS02006556           JUNCTION      0.00   708.80     0  03:32           0         6.6       0.164
  YS02006558           JUNCTION    433.40  1020.19     0  02:46        2.93        9.51       0.051
  YS02001783           JUNCTION      0.00  1019.91     0  02:46           0        9.48       0.020
  YS02001784           JUNCTION      1.06  1021.03     0  02:46      0.0299        9.51       0.035
  YS02001786           JUNCTION      0.06  1020.96     0  02:46     0.00159         9.5       0.034
  YS02001788           JUNCTION      0.07  1020.90     0  02:46       0.002         9.5       0.021
  YS02001790           JUNCTION      0.15  1021.07     0  02:46     0.00437         9.5       0.002
  YS02001791           JUNCTION      0.00  1021.21     0  02:46           0         9.5       0.011
  YS02001793           JUNCTION      0.00  1021.13     0  02:46           0        9.51      -0.025
  WSC                  OUTFALL       0.00  1117.84     0  03:09           0        18.7       0.000
  JK-storage           STORAGE       0.00  1021.16     0  02:46           0        9.66     -10.490
  CC-storage           STORAGE       0.00  1577.51     0  02:35           0        6.21       1.055
  XR-storage           STORAGE     844.76   844.76     0  03:01        11.8        12.4       0.000
  
  
  **********************
  Node Surcharge Summary
  **********************
  
  Surcharging occurs when water rises above the top of the highest conduit.
  ---------------------------------------------------------------------
                                               Max. Height   Min. Depth
                                   Hours       Above Crown    Below Rim
  Node                 Type      Surcharged         Meters       Meters
  ---------------------------------------------------------------------
  WS02004401           JUNCTION        0.13          0.029        1.631
  WS02004402           JUNCTION        0.21          0.039        1.701
  WS02004403           JUNCTION        0.21          0.037        1.993
  WS02004404           JUNCTION        0.47          0.095        2.685
  WS02004406           JUNCTION        0.38          0.060        2.390
  WS02004405           JUNCTION        0.43          0.080        2.720
  WS02006109           JUNCTION        2.95          0.322        1.498
  WS02006110           JUNCTION        1.00          0.121        1.729
  WS02006112           JUNCTION        1.30          0.264        1.416
  WS02006230           JUNCTION        0.74          0.167        1.403
  WS02006231           JUNCTION        1.01          0.200        1.330
  WS02006232           JUNCTION        2.61          0.379        1.101
  WS02006234           JUNCTION        1.62          0.367        0.873
  WS02006235           JUNCTION        2.04          0.464        0.826
  WS02006238           JUNCTION        2.16          0.487        0.943
  WS02006240           JUNCTION        1.22          0.439        0.951
  WS02006242           JUNCTION        1.35          0.499        0.321
  WS02006243           JUNCTION        0.70          0.430        0.340
  WS02006245           JUNCTION        0.57          0.423        0.427
  WS02006247           JUNCTION        0.57          0.439        0.321
  WS02006248           JUNCTION        0.49          0.371        0.009
  WS02006249           JUNCTION        0.52          0.390        0.000
  WS02006239           JUNCTION        1.54          0.449        0.841
  WS02006251           JUNCTION        0.26          0.567        0.613
  WS02006252           JUNCTION        0.80          0.767        0.333
  WS02006253           JUNCTION        0.27          0.548        1.932
  WS02006256           JUNCTION        6.71          2.050        0.000
  WS02006228           JUNCTION        2.87          0.400        1.800
  YS02001748           JUNCTION        5.31          0.368        0.822
  YS02001751           JUNCTION        5.49          0.585        0.615
  YS02001754           JUNCTION        5.69          0.787        0.363
  YS02001762           JUNCTION        5.87          1.041        0.109
  YS02001765           JUNCTION        5.84          0.990        0.110
  YS02001767           JUNCTION        5.81          0.948        0.082
  YS02001770           JUNCTION        5.80          0.896        0.024
  YS02001774           JUNCTION        5.86          0.981        0.069
  YS02001779           JUNCTION        5.67          0.680        0.000
  YS02001882           JUNCTION        0.95          0.619        0.211
  YS02001884           JUNCTION        0.98          0.660        0.210
  YS02001759           JUNCTION        5.89          1.079        0.131
  YS02001887           JUNCTION        1.05          0.747        0.203
  YS02001890           JUNCTION        1.08          0.760        0.000
  YS02001898           JUNCTION        0.91          0.527        0.213
  YS02001901           JUNCTION        1.02          0.673        0.197
  YS02001904           JUNCTION        1.00          0.637        0.213
  YS02001907           JUNCTION        1.78          0.950        0.000
  YS02001910           JUNCTION        1.12          0.770        0.330
  YS02001915           JUNCTION        0.94          0.573        0.427
  YS02001918           JUNCTION        0.72          0.237        0.573
  YS02001619           JUNCTION        5.47          0.533        0.077
  YS02001629           JUNCTION        5.48          0.470        0.000
  YS02001641           JUNCTION        5.85          0.934        0.166
  YS02001644           JUNCTION        5.85          0.920        0.000
  YS02001652           JUNCTION        5.73          1.074        0.056
  YS02001655           JUNCTION        5.50          1.119        0.081
  YS02001920           JUNCTION        0.76          0.309        0.831
  YS02001658           JUNCTION        5.33          1.040        0.260
  YS02001661           JUNCTION        0.12          0.876        0.514
  YS02001622           JUNCTION        5.51          0.536        0.084
  YS02001633           JUNCTION        5.83          0.924        0.136
  YS02001649           JUNCTION        5.88          1.050        0.000
  YS02001757           JUNCTION        5.98          1.179        0.031
  YS02001895           JUNCTION        0.92          0.563        0.187
  YS02001625           JUNCTION        5.76          0.780        0.000
  YS02163301           JUNCTION        5.81          0.880        0.150
  YS02163601           JUNCTION        5.87          0.986        0.094
  YS02164001           JUNCTION        5.83          0.919        0.181
  YS02001647           JUNCTION        5.75          0.803        0.097
  YS02006553           JUNCTION        1.84          0.966        0.224
  YS02006561           JUNCTION        0.77          0.262        0.888
  YS02006556           JUNCTION        1.36          0.882        0.468
  YS02006558           JUNCTION        1.32          0.861        0.539
  YS02001783           JUNCTION        1.30          0.648        0.952
  YS02001784           JUNCTION        1.29          0.587        0.903
  YS02001786           JUNCTION        1.23          0.485        0.945
  YS02001788           JUNCTION        1.18          0.459        1.021
  YS02001790           JUNCTION        1.99          0.886        0.271
  YS02001791           JUNCTION        2.08          1.920        0.000
  YS02001793           JUNCTION        2.34          1.532        1.068
  
  
  *********************
  Node Flooding Summary
  *********************
  
  Flooding refers to all water that overflows a node, whether it ponds or not.
  --------------------------------------------------------------------------
                                                             Total   Maximum
                                 Maximum   Time of Max       Flood    Ponded
                        Hours       Rate    Occurrence      Volume     Depth
  Node                 Flooded       LPS   days hr:min    10^6 ltr    Meters
  --------------------------------------------------------------------------
  WS02006249              0.25    105.27      0  04:09       0.058     0.000
  WS02006256              3.70    978.40      0  00:00       6.229     0.000
  YS02001779              2.97    622.97      0  03:09       2.153     0.000
  YS02001890              0.01      0.47      0  02:58       0.000     0.000
  YS02001907              0.55    400.57      0  03:01       0.415     0.000
  YS02001629              0.01     18.16      0  02:24       0.000     0.000
  YS02001644              4.49   1396.72      0  03:01       9.136     0.000
  YS02001649              0.02     30.45      0  02:46       0.001     0.000
  YS02001625              1.18    237.82      0  03:01       0.465     0.000
  YS02001791              0.01    252.73      0  02:18       0.000     0.000
  JK-storage              0.84    720.12      0  02:29       1.022     0.000
  XR-storage              2.95    458.15      0  03:01       1.704     0.000
  
  
  **********************
  Storage Volume Summary
  **********************
  
  --------------------------------------------------------------------------------------------------
                         Average     Avg  Evap Exfil       Maximum     Max    Time of Max    Maximum
                          Volume    Pcnt  Pcnt  Pcnt        Volume    Pcnt     Occurrence    Outflow
  Storage Unit           1000 m3    Full  Loss  Loss       1000 m3    Full    days hr:min        LPS
  --------------------------------------------------------------------------------------------------
  JK-storage               0.132      45     0     0         0.291     100       0  02:19     983.00
  CC-storage               3.199      20     0     0         4.000      25       0  03:07     400.00
  XR-storage               0.768      83     0     0         0.926     100       0  03:01     380.00
  
  
  ***********************
  Outfall Loading Summary
  ***********************
  
  ---------------------------------------------------------------------------------------------------------------------------------
                         Flow       Avg       Max       Total         Total         Total         Total         Total         Total
                         Freq      Flow      Flow      Volume           COD            SS            TN            TP         NH4-N
  Outfall Node           Pcnt       LPS       LPS    10^6 ltr            kg            kg            kg            kg            kg
  ---------------------------------------------------------------------------------------------------------------------------------
  WSC                   99.98    729.06   1117.84      18.688      2250.327      3834.399       150.763        17.880        91.601
  ---------------------------------------------------------------------------------------------------------------------------------
  System                99.98    729.06   1117.84      18.688      2250.327      3834.399       150.763        17.880        91.601
  
  
  ********************
  Link Flow Summary
  ********************
  
  -----------------------------------------------------------------------------
                                 Maximum  Time of Max   Maximum    Max/    Max/
                                  |Flow|   Occurrence   |Veloc|    Full    Full
  Link                 Type          LPS  days hr:min     m/sec    Flow   Depth
  -----------------------------------------------------------------------------
  WS02003066WSF200     CONDUIT    716.39     0  03:06      2.88    0.12    0.27
  WS02006287WS02006284 CONDUIT    413.47     0  03:02      2.04    0.19    0.30
  WS02006284WS02006280 CONDUIT    413.62     0  03:02      2.28    0.17    0.28
  WS02006280WS02006229 CONDUIT    413.66     0  03:02      3.68    0.09    0.20
  WS02006229WS02006228 CONDUIT    705.97     0  03:02      1.40    2.34    1.00
  WS02006256WS02006235 CONDUIT    288.60     0  00:00      4.23    3.05    1.00
  WS02006253WS02006251 CONDUIT    120.70     0  05:31      0.58    0.36    1.00
  WS02006252WS02006251 CONDUIT    404.62     0  06:40      3.22    1.49    1.00
  WS02006251WS02006249 CONDUIT    428.23     0  06:40      1.13    1.23    1.00
  WS02006249WS02006248 CONDUIT    370.71     0  06:00      1.19    2.03    1.00
  WS02006248WS02006247 CONDUIT    366.16     0  06:01      1.16    0.80    1.00
  WS02006247WS02006245 CONDUIT    361.49     0  06:01      1.14    2.87    1.00
  WS02006245WS02006243 CONDUIT    356.10     0  06:01      1.19    1.05    1.00
  WS02006243WS02006242 CONDUIT    347.26     0  06:01      1.07    0.74    1.00
  WS02006242WS02006240 CONDUIT    338.22     0  06:02      1.01    1.34    1.00
  WS02006240WS02006239 CONDUIT    328.09     0  06:40      1.06    1.03    1.00
  WS02006239WS02006238 CONDUIT    328.28     0  06:40      0.96    1.05    1.00
  WS02006238WS02006235 CONDUIT    328.98     0  06:40      1.46    0.73    1.00
  WS02006235WS02006234 CONDUIT    523.26     0  06:40      1.36    5.52    1.00
  WS02006234WS02006232 CONDUIT    523.03     0  06:40      1.39    1.06    1.00
  WS02006232WS02006231 CONDUIT    523.30     0  06:40      1.36    1.10    1.00
  WS02006231WS02006230 CONDUIT    523.10     0  06:40      1.36    7.93    1.00
  WS02006230WS02006229 CONDUIT    533.98     0  06:41      1.39   11.88    1.00
  WS02006228WS02006109 CONDUIT    706.08     0  03:02      1.40    3.08    1.00
  WS02006116WS02004401 CONDUIT    717.91     0  03:03      0.91    0.99    1.00
  WS02006115WS02006116 CONDUIT    719.02     0  03:03      0.93    0.92    0.96
  WS02006113WS02006111 CONDUIT    719.25     0  02:59      2.61    0.86    0.60
  WS02006112WS02006115 CONDUIT    719.32     0  03:02      0.92    0.42    0.97
  WS02006111WS02006112 CONDUIT    706.13     0  03:03      1.72    0.34    0.77
  WS02006110WS02006113 CONDUIT    707.04     0  03:02      1.60    0.64    0.83
  WS02006109WS02006110 CONDUIT    707.25     0  03:02      1.41    1.36    1.00
  WS02004411WS02004412 CONDUIT    716.31     0  03:05      1.07    1.02    0.79
  WS02004401WS02004402 CONDUIT    717.77     0  03:03      0.91    0.86    1.00
  WS02004413WS02003067 CONDUIT    716.18     0  03:05      1.31    0.31    0.66
  WS02004412WS02004413 CONDUIT    716.21     0  03:05      0.99    0.48    0.86
  WS02004410WS02004411 CONDUIT    716.63     0  03:05      1.07    0.98    0.79
  WS02004409WS02004410 CONDUIT    717.23     0  03:04      1.08    0.93    0.79
  WS02004407WS02004409 CONDUIT    718.18     0  03:04      1.57    0.25    0.57
  WS02004406WS02004407 CONDUIT    718.41     0  03:04      1.28    0.32    0.67
  WS02004405WS02004406 CONDUIT    718.26     0  03:04      0.91    1.42    1.00
  WS02004404WS02004405 CONDUIT    718.14     0  03:04      0.91    7.04    1.00
  WS02004403WS02004404 CONDUIT    717.91     0  03:04      0.91    0.52    1.00
  WS02004402WS02004403 CONDUIT    717.80     0  03:04      0.91    1.03    1.00
  WS02004139WS02001211 CONDUIT    382.30     0  03:17      0.90    0.48    0.61
  WS02004138WS02004139 CONDUIT    396.19     0  00:00      3.65    0.08    0.45
  WS02003067WS02003066 CONDUIT    716.34     0  03:06      1.42    0.23    0.46
  WS02001213WS02003059 CONDUIT    397.91     0  04:30      0.88    0.66    0.82
  WS02001212WS02001213 CONDUIT    394.19     0  04:30      1.32    0.61    0.51
  WS02001211WS02001212 CONDUIT    391.91     0  04:30      0.78    0.30    0.68
  WS02003072WS02003073 CONDUIT   1115.94     0  03:08      1.84    2.41    0.53
  WS02003069WS02003072 CONDUIT   1115.95     0  03:07      1.71    0.54    0.56
  WS02003060WS02003069 CONDUIT   1115.83     0  03:07      1.94    0.44    0.51
  WS02003059WS02003060 CONDUIT    403.08     0  04:30      0.95    0.26    0.71
  HS02004901HS02004770 CONDUIT     20.52     0  03:01      0.07    0.08    0.42
  HS02004876HS02004881 CONDUIT     76.55     0  03:01      0.95    0.81    0.12
  HS02004870HS02004876 CONDUIT     61.90     0  03:01      0.65    0.04    0.14
  HS02004842HS02004848 CONDUIT     12.41     0  03:01      0.06    0.01    0.31
  HS02004837HS02004842 CONDUIT     12.98     0  03:02      0.42    0.01    0.32
  HS02004830HS02004837 CONDUIT     43.70     0  03:01      0.57    0.04    0.11
  HS02004824HS02004830 CONDUIT     43.66     0  03:01      0.59    0.06    0.11
  HS02004817HS02004824 CONDUIT     85.68     0  03:01      0.26    0.04    0.48
  HS02004770HS02004777 CONDUIT    104.13     0  03:01      0.35    0.19    0.43
  HS02004799HS02004480 CONDUIT    258.31     0  03:01      0.83    0.33    0.44
  HS02004792HS02004799 CONDUIT    237.05     0  03:01      0.95    0.15    0.36
  HS02004788HS02004792 CONDUIT    135.43     0  03:01      1.06    0.09    0.18
  HS02004785HS02004788 CONDUIT    103.22     0  03:02      0.71    0.78    0.21
  HS02004777HS02004785 CONDUIT    103.37     0  03:01      0.42    0.13    0.35
  HS02004480HS02004478 CONDUIT    302.29     0  03:01      1.26    1.27    0.34
  HS02004479HS02004480 CONDUIT     46.29     0  03:02      0.32    0.04    0.43
  HS02004862HS02004870 CONDUIT     47.43     0  03:01      0.66    0.05    0.10
  HS02004848HS02004852 CONDUIT     21.94     0  03:01      0.45    0.02    0.07
  HS02004856HS02004862 CONDUIT     32.47     0  03:01      0.48    0.03    0.10
  HS02004852HS02004856 CONDUIT     21.85     0  03:02      0.25    0.02    0.13
  HS02004802HS02004478 CONDUIT    111.52     0  03:02      0.45    0.10    0.36
  HS02004478WS02006287 CONDUIT    413.22     0  03:01      1.75    0.12    0.26
  HS02004817HS02004807 CONDUIT     86.14     0  03:01      0.19    0.05    0.63
  HS02004807HS02004802 CONDUIT    111.37     0  03:01      0.38    0.21    0.42
  YS02001759YS02001757 CONDUIT    573.06     0  02:39      0.73    0.41    1.00
  YS02001762YS02001759 CONDUIT    289.95     0  02:38      0.37    0.33    1.00
  YS02001765YS02001762 CONDUIT    290.77     0  02:38      0.37    0.27    1.00
  YS02001770YS02001767 CONDUIT    291.11     0  02:39      0.37    1.15    1.00
  YS02001774YS02001770 CONDUIT    622.59     0  03:09      0.79    0.40    1.00
  YS02001779YS02001774 CONDUIT    622.99     0  03:09      0.79    0.31    1.00
  YS02001649YS02001757 CONDUIT    826.63     0  02:35      1.05    0.50    1.00
  YS02001767YS02001765 CONDUIT    291.07     0  02:39      0.37    0.37    1.00
  YS02006561YS02001783 CONDUIT   1019.91     0  02:46      2.14    0.53    1.00
  YS02001783YS02001784 CONDUIT   1019.97     0  02:46      2.03    1.41    1.00
  YS02001784YS02001785 CONDUIT   1020.90     0  02:46      2.03    2.38    1.00
  YS02001788YS02001790 CONDUIT   1020.92     0  02:46      2.43    0.75    1.00
  YS02001790YS02001791 CONDUIT   1021.21     0  02:46      2.90    1.11    1.00
  YS02001791YS02001793 CONDUIT   1021.13     0  02:46      5.77    0.44    1.00
  YS02001910YS02001907 CONDUIT    454.48     0  03:01      0.58    0.26    1.00
  YS02001786YS02001788 CONDUIT   1020.83     0  02:46      2.30    1.97    1.00
  YS02001915YS02001910 CONDUIT    454.81     0  03:01      0.59    0.23    1.00
  YS02001918YS02001915 CONDUIT    246.22     0  03:31      0.44    0.14    1.00
  YS02001923YS02001920 CONDUIT    191.37     0  03:29      0.72    0.09    1.00
  YS02001926YS02001923 CONDUIT    173.17     0  03:29      0.83    0.25    0.86
  YS02001929YS02001926 CONDUIT    156.19     0  03:01      0.88    0.07    0.75
  YS02001920YS02001918 CONDUIT    210.92     0  03:29      0.70    0.20    1.00
  YS02001629YS02163301 CONDUIT    212.22     0  02:25      0.27    0.26    1.00
  YS02001619YS02001622 CONDUIT    291.13     0  03:01      0.61    0.43    1.00
  YS02001622YS02001625 CONDUIT    290.74     0  03:01      0.37    0.16    1.00
  YS02001625YS02001629 CONDUIT    190.40     0  02:17      0.24    0.09    1.00
  YS02163301YS02001633 CONDUIT    215.19     0  02:25      0.27    0.20    1.00
  YS02163601YS02164001 CONDUIT    398.04     0  02:35      0.51    0.35    1.00
  YS02164001YS02001641 CONDUIT    397.43     0  02:35      0.51    0.54    1.00
  YS02001641YS02001644 CONDUIT    400.44     0  02:25      0.51    1.29    1.00
  YS02001647YS02001649 CONDUIT    734.35     0  03:09      0.93    0.39    1.00
  YS02006553YS02006556 CONDUIT    708.80     0  03:32      0.90    0.61    1.00
  YS02006556YS02006558 CONDUIT    709.35     0  03:32      0.90    0.56    1.00
  YSB6556YSB1171       CONDUIT     25.76     0  03:03      0.09    0.03    0.70
  YS02001907YS02006553 CONDUIT    708.49     0  03:32      0.79    0.83    1.00
  YS02006558YS02006561 CONDUIT   1019.86     0  02:46      3.61    2.25    1.00
  YS02001633YS02163601 CONDUIT    398.02     0  02:35      0.51    0.42    1.00
  YS02001644YS02001647 CONDUIT    734.35     0  03:10      0.93    0.43    1.00
  YS02001745YS02001748 CONDUIT    541.97     0  02:26      1.47    0.21    0.96
  YS02001748YS02001751 CONDUIT    341.35     0  03:01      1.06    0.17    1.00
  YS02001751YS02001754 CONDUIT    341.06     0  03:01      0.92    0.16    1.00
  YS02001754YS02001757 CONDUIT    341.61     0  03:01      0.43    0.14    1.00
  YS02001882YS02001884 CONDUIT     19.49     0  04:00      0.13    0.02    1.00
  YS02001884YS02001887 CONDUIT     31.30     0  04:00      0.09    0.04    1.00
  YS02001890YS02001895 CONDUIT    495.09     0  03:01      0.63    0.23    1.00
  YS02001895YS02001898 CONDUIT    495.14     0  03:01      0.63    0.86    1.00
  YS02001898YS02001901 CONDUIT    495.29     0  03:01      0.63    0.32    1.00
  YS02001901YS02001904 CONDUIT    494.92     0  03:01      0.63    0.77    1.00
  YS02001904YS02001907 CONDUIT    495.41     0  03:01      0.63    0.17    1.00
  YS02001887YS02001890 CONDUIT    495.06     0  03:00      0.63    0.85    1.00
  YS02001652YS02001649 CONDUIT    372.86     0  03:01      0.63    0.18    1.00
  YS02001655YS02001652 CONDUIT    372.69     0  03:01      0.98    0.18    1.00
  YS02001658YS02001655 CONDUIT    371.81     0  03:01      1.22    0.16    1.00
  YS02001661YS02001658 CONDUIT    592.73     0  02:23      1.55    0.23    1.00
  YS02001664YS02001661 CONDUIT    614.26     0  02:42      1.43    0.19    0.77
  YSB1154YSB6556       CONDUIT     25.82     0  03:01      0.17    0.05    0.59
  YSB1174YSB1171       CONDUIT     20.15     0  03:01      0.07    0.03    0.70
  YSB1171HS02004479    CONDUIT     44.91     0  03:02      0.54    0.03    0.55
  HS02004881HS02006253 CONDUIT     84.16     0  03:01      2.12    0.02    0.51
  YS02001793JiankangQianchi CONDUIT   1021.16     0  02:46     16.50    0.08    1.00
  YS02001757CaochengTiaoxuchi CONDUIT   1577.51     0  02:35      2.02    0.69    1.00
  WSF200WS02003060     CONDUIT    716.52     0  03:06      1.76    0.16    0.39
  1                    CONDUIT   1117.84     0  03:09      3.43    0.39    0.43
  CC-Pump-1            PUMP       200.00     0  04:00              1.00
  CC-Pump-2            PUMP       200.00     0  06:40              1.00
  JK-Pump-1            PUMP       300.00     0  00:00              1.00
  JK-Pump-2            PUMP       683.00     0  00:00              1.00
  XR-Pump-1            PUMP        95.00     0  00:00              1.00
  XR-Pump-2            PUMP        95.00     0  00:00              1.00
  XR-Pump-3            PUMP        95.00     0  00:00              1.00
  XR-Pump-4            PUMP        95.00     0  00:00              1.00
  
  
  ***************************
  Flow Classification Summary
  ***************************
  
  -------------------------------------------------------------------------------------
                      Adjusted    ---------- Fraction of Time in Flow Class ---------- 
                       /Actual         Up    Down  Sub   Sup   Up    Down  Norm  Inlet 
  Conduit               Length    Dry  Dry   Dry   Crit  Crit  Crit  Crit  Ltd   Ctrl  
  -------------------------------------------------------------------------------------
  WS02003066WSF200        1.00   0.01  0.06  0.00  0.00  0.92  0.00  0.00  0.55  0.00
  WS02006287WS02006284    1.00   0.03  0.01  0.00  0.60  0.35  0.00  0.00  0.62  0.00
  WS02006284WS02006280    1.00   0.04  0.00  0.00  0.00  0.00  0.00  0.96  0.00  0.00
  WS02006280WS02006229    1.00   0.04  0.00  0.00  0.00  0.00  0.00  0.96  0.00  0.00
  WS02006229WS02006228    1.00   0.00  0.00  0.00  1.00  0.00  0.00  0.00  0.00  0.00
  WS02006256WS02006235    1.00   0.00  0.00  0.00  1.00  0.00  0.00  0.00  0.00  0.00
  WS02006253WS02006251    1.00   0.02  0.02  0.00  0.96  0.00  0.01  0.00  0.00  0.00
  WS02006252WS02006251    1.00   0.28  0.00  0.00  0.03  0.00  0.69  0.00  0.00  0.00
  WS02006251WS02006249    1.00   0.00  0.00  0.00  1.00  0.00  0.00  0.00  0.31  0.00
  WS02006249WS02006248    1.00   0.00  0.01  0.00  0.84  0.00  0.15  0.00  0.00  0.00
  WS02006248WS02006247    1.00   0.01  0.00  0.00  0.98  0.00  0.00  0.01  0.22  0.00
  WS02006247WS02006245    1.00   0.01  0.00  0.00  0.95  0.00  0.00  0.05  0.00  0.00
  WS02006245WS02006243    1.00   0.00  0.00  0.00  0.91  0.00  0.00  0.08  0.01  0.00
  WS02006243WS02006242    1.00   0.00  0.00  0.00  1.00  0.00  0.00  0.00  0.35  0.00
  WS02006242WS02006240    1.00   0.00  0.00  0.00  1.00  0.00  0.00  0.00  0.00  0.00
  WS02006240WS02006239    1.00   0.00  0.00  0.00  0.94  0.00  0.00  0.06  0.02  0.00
  WS02006239WS02006238    1.00   0.00  0.00  0.00  1.00  0.00  0.00  0.00  0.14  0.00
  WS02006238WS02006235    1.00   0.00  0.00  0.00  1.00  0.00  0.00  0.00  0.00  0.00
  WS02006235WS02006234    1.00   0.00  0.00  0.00  0.95  0.00  0.05  0.00  0.00  0.00
  WS02006234WS02006232    1.00   0.00  0.00  0.00  1.00  0.00  0.00  0.00  0.10  0.00
  WS02006232WS02006231    1.00   0.00  0.00  0.00  1.00  0.00  0.00  0.00  0.00  0.00
  WS02006231WS02006230    1.00   0.00  0.00  0.00  0.73  0.00  0.27  0.00  0.00  0.00
  WS02006230WS02006229    1.00   0.00  0.00  0.00  1.00  0.00  0.00  0.00  0.01  0.00
  WS02006228WS02006109    1.00   0.00  0.00  0.00  1.00  0.00  0.00  0.00  0.01  0.00
  WS02006116WS02004401    1.00   0.01  0.00  0.00  0.99  0.00  0.00  0.00  0.01  0.00
  WS02006115WS02006116    1.00   0.01  0.00  0.00  0.97  0.00  0.00  0.02  0.01  0.00
  WS02006113WS02006111    1.00   0.01  0.00  0.00  0.00  0.99  0.00  0.00  0.20  0.00
  WS02006112WS02006115    1.00   0.01  0.00  0.00  0.99  0.00  0.00  0.00  0.00  0.00
  WS02006111WS02006112    1.00   0.01  0.00  0.00  0.99  0.00  0.00  0.00  0.93  0.00
  WS02006110WS02006113    1.00   0.00  0.00  0.00  0.99  0.00  0.00  0.00  0.00  0.00
  WS02006109WS02006110    1.00   0.00  0.00  0.00  0.99  0.00  0.00  0.00  0.00  0.00
  WS02004411WS02004412    1.00   0.06  0.00  0.00  0.94  0.00  0.00  0.00  0.00  0.00
  WS02004401WS02004402    1.00   0.01  0.00  0.00  0.99  0.00  0.00  0.00  0.01  0.00
  WS02004413WS02003067    1.00   0.06  0.01  0.00  0.00  0.00  0.93  0.00  0.00  0.00
  WS02004412WS02004413    1.00   0.06  0.00  0.00  0.94  0.00  0.00  0.00  0.00  0.00
  WS02004410WS02004411    1.00   0.06  0.00  0.00  0.94  0.00  0.00  0.00  0.00  0.00
  WS02004409WS02004410    1.00   0.06  0.00  0.00  0.94  0.00  0.00  0.00  0.00  0.00
  WS02004407WS02004409    1.00   0.06  0.00  0.00  0.94  0.01  0.00  0.00  0.81  0.00
  WS02004406WS02004407    1.00   0.00  0.06  0.00  0.94  0.00  0.00  0.00  0.00  0.00
  WS02004405WS02004406    1.00   0.00  0.00  0.00  1.00  0.00  0.00  0.00  0.02  0.00
  WS02004404WS02004405    1.00   0.00  0.00  0.00  1.00  0.00  0.00  0.00  0.00  0.00
  WS02004403WS02004404    1.00   0.00  0.01  0.00  0.99  0.00  0.00  0.00  0.02  0.00
  WS02004402WS02004403    1.00   0.01  0.00  0.00  0.99  0.00  0.00  0.00  0.00  0.00
  WS02004139WS02001211    1.00   0.00  0.00  0.00  1.00  0.00  0.00  0.00  0.00  0.00
  WS02004138WS02004139    1.00   0.00  0.00  0.00  1.00  0.00  0.00  0.00  1.00  0.00
  WS02003067WS02003066    1.00   0.07  0.00  0.00  0.92  0.00  0.00  0.00  0.00  0.00
  WS02001213WS02003059    1.00   0.00  0.00  0.00  1.00  0.00  0.00  0.00  0.00  0.00
  WS02001212WS02001213    1.00   0.00  0.00  0.00  0.91  0.00  0.09  0.00  0.00  0.00
  WS02001211WS02001212    1.00   0.00  0.00  0.00  1.00  0.00  0.00  0.00  0.00  0.00
  WS02003072WS02003073    1.00   0.00  0.00  0.00  0.00  0.00  0.00  1.00  0.00  0.00
  WS02003069WS02003072    1.00   0.00  0.00  0.00  1.00  0.00  0.00  0.00  0.08  0.00
  WS02003060WS02003069    1.00   0.00  0.00  0.00  0.98  0.02  0.00  0.00  0.07  0.00
  WS02003059WS02003060    1.00   0.00  0.00  0.00  1.00  0.00  0.00  0.00  0.00  0.00
  HS02004901HS02004770    1.00   0.04  0.00  0.00  0.96  0.00  0.00  0.00  0.00  0.00
  HS02004876HS02004881    1.00   0.01  0.00  0.00  0.92  0.07  0.00  0.00  0.00  0.00
  HS02004870HS02004876    1.00   0.00  0.00  0.00  0.99  0.00  0.00  0.00  0.95  0.00
  HS02004842HS02004848    1.00   0.00  0.04  0.00  0.96  0.00  0.00  0.00  0.55  0.00
  HS02004837HS02004842    1.00   0.00  0.00  0.00  1.00  0.00  0.00  0.00  0.11  0.00
  HS02004830HS02004837    1.00   0.00  0.00  0.00  1.00  0.00  0.00  0.00  0.99  0.00
  HS02004824HS02004830    1.00   0.00  0.00  0.00  1.00  0.00  0.00  0.00  0.00  0.00
  HS02004817HS02004824    1.00   0.00  0.00  0.00  1.00  0.00  0.00  0.00  1.00  0.00
  HS02004770HS02004777    1.00   0.00  0.04  0.00  0.96  0.00  0.00  0.00  0.02  0.00
  HS02004799HS02004480    1.00   0.00  0.01  0.00  0.95  0.00  0.03  0.00  0.00  0.00
  HS02004792HS02004799    1.00   0.00  0.00  0.00  1.00  0.00  0.00  0.00  0.98  0.00
  HS02004788HS02004792    1.00   0.00  0.00  0.00  1.00  0.00  0.00  0.00  0.98  0.00
  HS02004785HS02004788    1.00   0.00  0.00  0.00  1.00  0.00  0.00  0.00  0.00  0.00
  HS02004777HS02004785    1.00   0.00  0.00  0.00  1.00  0.00  0.00  0.00  0.12  0.00
  HS02004480HS02004478    1.00   0.04  0.00  0.00  0.70  0.00  0.00  0.26  0.00  0.00
  HS02004479HS02004480    1.00   0.01  0.00  0.00  0.99  0.00  0.00  0.00  0.11  0.00
  HS02004862HS02004870    1.00   0.00  0.00  0.00  1.00  0.00  0.00  0.00  0.03  0.00
  HS02004848HS02004852    1.00   0.04  0.00  0.00  0.96  0.00  0.00  0.00  0.62  0.00
  HS02004856HS02004862    1.00   0.00  0.05  0.00  0.95  0.00  0.00  0.00  0.83  0.00
  HS02004852HS02004856    1.00   0.04  0.00  0.00  0.96  0.00  0.00  0.00  0.85  0.00
  HS02004802HS02004478    1.00   0.04  0.00  0.00  0.96  0.00  0.00  0.00  0.02  0.00
  HS02004478WS02006287    1.00   0.05  0.00  0.00  0.75  0.20  0.00  0.00  0.64  0.00
  HS02004817HS02004807    1.00   0.00  0.04  0.00  0.96  0.00  0.00  0.00  0.01  0.00
  HS02004807HS02004802    1.00   0.04  0.00  0.00  0.96  0.00  0.00  0.00  0.00  0.00
  YS02001759YS02001757    1.00   0.00  0.00  0.00  1.00  0.00  0.00  0.00  0.16  0.00
  YS02001762YS02001759    1.00   0.00  0.00  0.00  1.00  0.00  0.00  0.00  0.03  0.00
  YS02001765YS02001762    1.00   0.00  0.00  0.00  1.00  0.00  0.00  0.00  0.13  0.00
  YS02001770YS02001767    1.00   0.00  0.00  0.00  1.00  0.00  0.00  0.00  0.00  0.00
  YS02001774YS02001770    1.00   0.00  0.04  0.00  0.96  0.00  0.00  0.00  0.02  0.00
  YS02001779YS02001774    1.00   0.00  0.00  0.00  1.00  0.00  0.00  0.00  0.18  0.00
  YS02001649YS02001757    1.00   0.00  0.00  0.00  1.00  0.00  0.00  0.00  0.16  0.00
  YS02001767YS02001765    1.00   0.00  0.00  0.00  1.00  0.00  0.00  0.00  0.00  0.00
  YS02006561YS02001783    1.00   0.05  0.00  0.00  0.31  0.64  0.00  0.00  0.48  0.00
  YS02001783YS02001784    1.00   0.00  0.05  0.00  0.95  0.00  0.00  0.00  0.00  0.00
  YS02001784YS02001785    1.00   0.00  0.00  0.00  1.00  0.00  0.00  0.00  0.17  0.00
  YS02001788YS02001790    1.00   0.00  0.00  0.00  0.36  0.64  0.00  0.00  0.39  0.00
  YS02001790YS02001791    1.00   0.00  0.00  0.00  0.33  0.67  0.00  0.00  0.48  0.00
  YS02001791YS02001793    1.00   0.00  0.00  0.00  0.37  0.63  0.00  0.00  0.02  0.00
  YS02001910YS02001907    1.00   0.00  0.00  0.00  0.99  0.00  0.00  0.01  0.12  0.00
  YS02001786YS02001788    1.00   0.00  0.00  0.00  0.34  0.66  0.00  0.00  0.00  0.00
  YS02001915YS02001910    1.00   0.00  0.00  0.00  0.99  0.01  0.00  0.00  0.15  0.00
  YS02001918YS02001915    1.00   0.00  0.00  0.00  0.99  0.00  0.00  0.00  0.54  0.00
  YS02001923YS02001920    1.00   0.00  0.00  0.00  1.00  0.00  0.00  0.00  0.84  0.00
  YS02001926YS02001923    1.00   0.00  0.02  0.00  0.12  0.00  0.86  0.00  0.00  0.00
  YS02001929YS02001926    1.00   0.00  0.04  0.00  0.96  0.00  0.00  0.00  0.76  0.00
  YS02001920YS02001918    1.00   0.00  0.00  0.00  1.00  0.00  0.00  0.00  0.00  0.00
  YS02001629YS02163301    1.00   0.04  0.00  0.00  0.95  0.00  0.00  0.00  0.00  0.00
  YS02001619YS02001622    1.00   0.04  0.00  0.00  0.96  0.00  0.00  0.00  0.00  0.00
  YS02001622YS02001625    1.00   0.04  0.00  0.00  0.96  0.00  0.00  0.00  0.04  0.00
  YS02001625YS02001629    1.00   0.04  0.02  0.00  0.93  0.00  0.02  0.00  0.00  0.00
  YS02163301YS02001633    1.00   0.00  0.04  0.00  0.96  0.00  0.00  0.00  0.00  0.00
  YS02163601YS02164001    1.00   0.00  0.02  0.00  0.98  0.00  0.00  0.00  0.00  0.00
  YS02164001YS02001641    1.00   0.00  0.02  0.00  0.98  0.00  0.00  0.00  0.06  0.00
  YS02001641YS02001644    1.00   0.00  0.00  0.00  1.00  0.00  0.00  0.00  0.00  0.00
  YS02001647YS02001649    1.00   0.00  0.05  0.00  0.95  0.00  0.00  0.00  0.01  0.00
  YS02006553YS02006556    1.00   0.01  0.00  0.00  0.99  0.00  0.00  0.00  0.03  0.00
  YS02006556YS02006558    1.00   0.00  0.00  0.00  1.00  0.00  0.00  0.00  0.00  0.00
  YSB6556YSB1171          1.00   0.01  0.02  0.00  0.96  0.00  0.00  0.00  0.00  0.00
  YS02001907YS02006553    1.00   0.00  0.01  0.00  0.99  0.00  0.00  0.00  0.00  0.00
  YS02006558YS02006561    1.00   0.05  0.00  0.00  0.13  0.82  0.00  0.00  0.50  0.00
  YS02001633YS02163601    1.00   0.00  0.00  0.00  1.00  0.00  0.00  0.00  0.15  0.00
  YS02001644YS02001647    1.00   0.00  0.05  0.00  0.95  0.00  0.00  0.00  0.00  0.00
  YS02001745YS02001748    1.00   0.00  0.00  0.00  0.90  0.01  0.00  0.09  0.04  0.00
  YS02001748YS02001751    1.00   0.00  0.00  0.00  0.97  0.03  0.00  0.00  0.15  0.00
  YS02001751YS02001754    1.00   0.00  0.00  0.00  0.94  0.00  0.00  0.06  0.02  0.00
  YS02001754YS02001757    1.00   0.00  0.00  0.00  1.00  0.00  0.00  0.00  0.18  0.00
  YS02001882YS02001884    1.00   0.04  0.00  0.00  0.96  0.00  0.00  0.00  0.00  0.00
  YS02001884YS02001887    1.00   0.02  0.01  0.00  0.97  0.00  0.00  0.00  0.00  0.00
  YS02001890YS02001895    1.00   0.00  0.04  0.00  0.95  0.00  0.00  0.00  0.00  0.00
  YS02001895YS02001898    1.00   0.05  0.00  0.00  0.94  0.00  0.01  0.00  0.00  0.00
  YS02001898YS02001901    1.00   0.05  0.00  0.00  0.95  0.00  0.00  0.00  0.01  0.00
  YS02001901YS02001904    1.00   0.05  0.00  0.00  0.95  0.00  0.00  0.00  0.00  0.00
  YS02001904YS02001907    1.00   0.00  0.05  0.00  0.95  0.00  0.00  0.00  0.00  0.00
  YS02001887YS02001890    1.00   0.00  0.00  0.00  0.99  0.00  0.01  0.00  0.00  0.00
  YS02001652YS02001649    1.00   0.00  0.00  0.00  1.00  0.00  0.00  0.00  0.16  0.00
  YS02001655YS02001652    1.00   0.00  0.00  0.00  0.94  0.00  0.00  0.06  0.02  0.00
  YS02001658YS02001655    1.00   0.00  0.04  0.00  0.93  0.03  0.00  0.00  0.08  0.00
  YS02001661YS02001658    1.00   0.04  0.00  0.00  0.90  0.06  0.00  0.00  0.08  0.00
  YS02001664YS02001661    1.00   0.04  0.00  0.00  0.91  0.05  0.00  0.00  0.19  0.00
  YSB1154YSB6556          1.00   0.04  0.00  0.00  0.96  0.00  0.00  0.00  0.01  0.00
  YSB1174YSB1171          1.00   0.02  0.01  0.00  0.97  0.00  0.00  0.00  0.00  0.00
  YSB1171HS02004479       1.00   0.01  0.00  0.00  0.98  0.00  0.00  0.00  0.10  0.00
  HS02004881HS02006253    1.00   0.02  0.00  0.00  0.47  0.05  0.00  0.46  0.33  0.00
  YS02001793JiankangQianchi    1.00   0.00  0.00  0.00  0.62  0.38  0.00  0.00  0.39  0.00
  YS02001757CaochengTiaoxuchi    1.00   0.00  0.07  0.00  0.93  0.00  0.00  0.00  0.00  0.00
  WSF200WS02003060        1.00   0.00  0.01  0.00  0.99  0.00  0.00  0.00  0.45  0.00
  1                       1.00   0.00  0.00  0.00  0.00  1.00  0.00  0.00  0.55  0.00
  
  
  *************************
  Conduit Surcharge Summary
  *************************
  
  ----------------------------------------------------------------------------
                                                           Hours        Hours 
                         --------- Hours Full --------   Above Full   Capacity
  Conduit                Both Ends  Upstream  Dnstream   Normal Flow   Limited
  ----------------------------------------------------------------------------
  WS02006229WS02006228        2.87      3.04      2.87      4.33         2.87
  WS02006256WS02006235        5.14      5.14      6.71      4.18         0.01
  WS02006253WS02006251        0.47      0.47      0.49      0.01         0.02
  WS02006252WS02006251        0.43      0.43      0.80      0.70         0.01
  WS02006251WS02006249        0.48      0.48      0.52      0.29         0.20
  WS02006249WS02006248        0.49      0.49      0.52      1.51         0.01
  WS02006248WS02006247        0.52      0.52      0.57      0.01         0.01
  WS02006247WS02006245        0.57      0.59      0.57      2.14         0.56
  WS02006245WS02006243        0.59      0.59      0.70      0.03         0.04
  WS02006243WS02006242        0.76      0.76      1.35      0.01         0.01
  WS02006242WS02006240        1.22      1.22      1.54      0.62         0.01
  WS02006240WS02006239        1.31      1.31      1.54      0.29         0.25
  WS02006239WS02006238        1.80      1.80      2.16      0.31         0.28
  WS02006238WS02006235        2.15      2.15      2.36      0.01         0.02
  WS02006235WS02006234        1.62      1.62      2.04      4.83         0.01
  WS02006234WS02006232        1.78      1.78      2.61      0.35         0.37
  WS02006232WS02006231        1.01      1.01      2.61      0.45         0.01
  WS02006231WS02006230        0.74      0.74      1.07      5.15         0.01
  WS02006230WS02006229        3.87      4.05      3.87      5.72         3.87
  WS02006228WS02006109        2.95      3.44      2.95      4.69         2.95
  WS02006116WS02004401        0.12      0.12      0.13      0.01         0.01
  WS02006112WS02006115        0.01      0.01      1.30      0.01         0.01
  WS02006111WS02006112        0.01      0.01      4.30      0.01         0.01
  WS02006110WS02006113        0.01      0.01      3.21      0.01         0.01
  WS02006109WS02006110        1.00      1.00      3.44      1.01         0.01
  WS02004411WS02004412        0.01      0.01      0.01      0.08         0.01
[...]
  YS02001765YS02001762        5.84      5.84      5.87      0.01         0.01
  YS02001770YS02001767        5.81      5.81      5.81      0.37         0.67
  YS02001774YS02001770        5.80      5.80      5.86      0.01         0.01
  YS02001779YS02001774        5.67      5.67      5.86      0.01         0.01
  YS02001649YS02001757        5.88      5.88      5.98      0.01         0.01
  YS02001767YS02001765        5.81      5.81      5.84      0.01         0.01
  YS02006561YS02001783        0.77      0.77      1.30      0.01         0.01
  YS02001783YS02001784        1.28      1.30      1.29      1.30         1.14
  YS02001784YS02001785        1.23      1.29      1.23      2.39         1.23
  YS02001788YS02001790        1.18      1.18      1.99      0.01         0.01
  YS02001790YS02001791        1.99      1.99      2.08      0.93         0.91
  YS02001791YS02001793        2.08      2.08      2.43      0.01         0.01
  YS02001910YS02001907        1.12      1.12      1.78      0.01         0.01
  YS02001786YS02001788        1.18      1.23      1.18      1.93         1.18
  YS02001915YS02001910        0.94      0.94      1.12      0.01         0.01
  YS02001918YS02001915        0.72      0.72      0.94      0.01         0.01
  YS02001923YS02001920        0.54      0.54      0.76      0.01         0.01
  YS02001920YS02001918        0.72      0.72      0.76      0.01         0.01
  YS02001629YS02163301        5.80      5.80      5.81      0.01         0.01
  YS02001619YS02001622        5.47      5.47      5.51      0.01         0.01
  YS02001622YS02001625        5.51      5.51      5.76      0.01         0.01
  YS02001625YS02001629        5.48      5.48      5.76      0.01         0.01
  YS02163301YS02001633        5.81      5.81      5.84      0.01         0.01
  YS02163601YS02164001        5.83      5.83      5.87      0.01         0.01
  YS02164001YS02001641        5.83      5.83      5.85      0.01         0.03
  YS02001641YS02001644        5.85      5.85      5.85      1.53         1.73
  YS02001647YS02001649        5.75      5.75      5.88      0.01         0.01
  YS02006553YS02006556        1.36      1.36      1.84      0.01         0.01
  YS02006556YS02006558        1.53      1.53      1.92      0.01         0.01
  YS02001907YS02006553        2.42      2.42      2.68      0.01         0.01
  YS02006558YS02006561        0.95      1.32      0.95      2.23         0.95
  YS02001633YS02163601        5.83      5.83      5.87      0.01         0.01
  YS02001644YS02001647        5.75      5.75      5.85      0.01         0.01
  YS02001745YS02001748        0.01      0.01      5.30      0.01         0.01
  YS02001748YS02001751        5.35      5.35      5.49      0.01         0.01
  YS02001751YS02001754        5.49      5.49      5.69      0.01         0.01
  YS02001754YS02001757        5.74      5.74      5.98      0.01         0.01
  YS02001882YS02001884        0.95      0.95      0.98      0.01         0.01
  YS02001884YS02001887        1.03      1.03      1.05      0.01         0.01
  YS02001890YS02001895        0.92      0.92      1.14      0.01         0.01
  YS02001895YS02001898        0.91      0.91      0.92      0.01         0.01
  YS02001898YS02001901        0.93      0.93      1.02      0.01         0.01
  YS02001901YS02001904        1.00      1.00      1.02      0.01         0.01
  YS02001904YS02001907        1.00      1.00      1.87      0.01         0.01
  YS02001887YS02001890        1.08      1.08      1.11      0.01         0.01
  YS02001652YS02001649        5.76      5.76      5.88      0.01         0.01
  YS02001655YS02001652        5.50      5.50      5.73      0.01         0.01
  YS02001658YS02001655        5.33      5.33      5.50      0.01         0.01
  YS02001661YS02001658        0.11      0.11      5.33      0.01         0.01
  YS02001664YS02001661        0.01      0.01      1.17      0.01         0.01
  HS02004881HS02006253        0.01      0.01      0.27      0.01         0.01
  YS02001793JiankangQianchi        2.34      2.34      3.99      0.01         0.01
  YS02001757CaochengTiaoxuchi        5.21      5.21      5.98      0.01         0.01
  
  
  ***************
  Pumping Summary
  ***************
  
  ---------------------------------------------------------------------------------------------------------
                                                  Min       Avg       Max     Total     Power    % Time Off
                        Percent   Number of      Flow      Flow      Flow    Volume     Usage    Pump Curve
  Pump                 Utilized   Start-Ups       LPS       LPS       LPS  10^6 ltr     Kw-hr    Low   High
  ---------------------------------------------------------------------------------------------------------
  CC-Pump-1               40.42           4      0.00    133.19    200.00     1.440      1.20    0.0    0.0
  CC-Pump-2               19.16           4      0.00    102.34    200.00     0.600      0.70    0.0    0.0
  JK-Pump-1               59.56           5      0.00    231.31    300.00     3.547     51.76    0.0    0.0
  JK-Pump-2               55.33           5      0.00    404.50    683.00     6.109     85.58    0.0   96.7
  XR-Pump-1               97.87           2      0.00     94.45     95.00     2.565     26.57    0.0    0.0
  XR-Pump-2               97.87           2      0.00     93.13     95.00     2.508     25.30    0.0    0.0
  XR-Pump-3               97.87           2      0.00     93.13     95.00     2.508     25.30    0.0    0.0
  XR-Pump-4               97.87           2      0.00     93.13     95.00     2.508     25.30    0.0    0.0
  
  
  ***************************
  Link Pollutant Load Summary
  ***************************
  
  ------------------------------------------------------------------------------------------
                                 COD            SS            TN            TP         NH4-N
  Link                            kg            kg            kg            kg            kg
  ------------------------------------------------------------------------------------------
  WS02003066WSF200           694.591      1280.037        19.016         1.702        10.112
  WS02006287WS02006284       268.055       498.208         9.345         0.943         5.213
  WS02006284WS02006280       268.544       498.999         9.392         0.949         5.243
  WS02006280WS02006229       268.517       498.948         9.390         0.948         5.241
  WS02006229WS02006228       684.749      1262.802        18.389         1.626         9.732
  WS02006256WS02006235       208.077       381.918         4.583         0.356         2.316
  WS02006253WS02006251        52.276       100.503         1.183         0.090         0.590
  WS02006252WS02006251       169.869       306.444         3.575         0.259         1.759
  WS02006251WS02006249       214.792       393.803         4.604         0.338         2.275
  WS02006249WS02006248       209.569       384.380         4.491         0.330         2.218
  WS02006248WS02006247       209.881       384.972         4.497         0.330         2.221
  WS02006247WS02006245       209.768       384.773         4.493         0.330         2.219
  WS02006245WS02006243       209.245       383.914         4.475         0.328         2.209
  WS02006243WS02006242       209.879       385.085         4.489         0.329         2.216
  WS02006242WS02006240       210.538       386.256         4.505         0.330         2.224
  WS02006240WS02006239       212.787       390.244         4.562         0.335         2.254
  WS02006239WS02006238       216.478       396.532         4.672         0.345         2.314
  WS02006238WS02006235       219.182       401.084         4.749         0.352         2.355
  WS02006235WS02006234       417.874       766.652         9.072         0.685         4.533
  WS02006234WS02006232       417.799       766.494         9.075         0.686         4.536
  WS02006232WS02006231       417.532       766.007         9.068         0.685         4.532
  WS02006231WS02006230       417.527       766.010         9.068         0.685         4.532
  WS02006230WS02006229       417.042       765.201         9.052         0.683         4.523
  WS02006228WS02006109       684.028      1261.588        18.336         1.619         9.699
  WS02006116WS02004401       698.675      1287.283        19.131         1.712        10.173
  WS02006115WS02006116       699.078      1287.988        19.149         1.714        10.184
  WS02006113WS02006111       691.000      1272.591        19.053         1.710        10.149
  WS02006112WS02006115       699.697      1289.033        19.182         1.718        10.204
  WS02006111WS02006112       690.731      1272.148        19.035         1.707        10.139
  WS02006110WS02006113       691.363      1273.222        19.073         1.712        10.161
  WS02006109WS02006110       692.123      1274.493        19.122         1.718        10.191
  WS02004411WS02004412       696.583      1283.471        19.107         1.712        10.165
  WS02004401WS02004402       698.101      1286.309        19.101         1.709        10.156
  WS02004413WS02003067       694.787      1280.394        19.021         1.702        10.115
  WS02004412WS02004413       696.061      1282.562        19.087         1.710        10.154
  WS02004410WS02004411       696.882      1283.999        19.117         1.713        10.171
  WS02004409WS02004410       697.249      1284.637        19.132         1.714        10.179
  WS02004407WS02004409       697.332      1284.799        19.131         1.714        10.179
  WS02004406WS02004407       697.153      1284.520        19.119         1.713        10.171
  WS02004405WS02004406       698.105      1286.122        19.178         1.720        10.207
  WS02004404WS02004405       698.035      1286.065        19.152         1.716        10.190
  WS02004403WS02004404       697.222      1284.802        19.058         1.704        10.131
  WS02004402WS02004403       697.720      1285.647        19.084         1.707        10.146
  WS02004139WS02001211      1416.621      2333.670       117.840        14.431        72.772
  WS02004138WS02004139      1422.988      2344.188       118.353        14.493        73.088
  WS02003067WS02003066       694.735      1280.288        19.022         1.703        10.116
  WS02001213WS02003059      1449.894      2386.209       121.241        14.859        74.907
  WS02001212WS02001213      1458.979      2401.122       122.003        14.953        75.378
  WS02001211WS02001212      1460.925      2404.285       122.174        14.974        75.484
  WS02003072WS02003073      2245.597      3827.324       150.183        17.806        91.233
  WS02003069WS02003072      2250.157      3834.734       150.577        17.854        91.477
  WS02003060WS02003069      2252.860      3839.257       150.775        17.878        91.598
  WS02003059WS02003060      1447.257      2381.790       121.047        14.836        74.788
  HS02004901HS02004770        10.270        19.477         0.195         0.015         0.091
  HS02004876HS02004881        37.319        72.581         0.843         0.062         0.416
  HS02004870HS02004876        28.160        54.628         0.678         0.051         0.338
  HS02004842HS02004848         5.467        10.277         0.115         0.008         0.053
  HS02004837HS02004842        10.072        17.581         0.584         0.067         0.347
  HS02004830HS02004837        65.638       112.703         4.556         0.546         2.785
  HS02004824HS02004830        66.389       113.906         4.628         0.555         2.829
  HS02004817HS02004824        88.206       156.976         5.083         0.584         3.051
  HS02004770HS02004777        39.296        75.466         0.819         0.055         0.377
  HS02004799HS02004480       131.411       245.373         3.680         0.335         1.932
  HS02004792HS02004799       119.086       220.663         3.497         0.327         1.853
  HS02004788HS02004792        68.396       126.858         2.388         0.235         1.309
  HS02004785HS02004788        40.734        77.761         0.969         0.074         0.471
  HS02004777HS02004785        40.060        76.668         0.909         0.067         0.434
  HS02004480HS02004478       165.950       312.595         4.243         0.374         2.195
  HS02004479HS02004480        38.143        72.971         0.884         0.079         0.462
  HS02004862HS02004870        21.016        40.117         0.536         0.043         0.270
  HS02004848HS02004852         8.057        15.280         0.167         0.011         0.077
  HS02004856HS02004862        14.072        27.341         0.284         0.019         0.133
  HS02004852HS02004856         8.064        15.291         0.167         0.011         0.077
  HS02004802HS02004478       102.885       186.887         5.162         0.575         3.055
  HS02004478WS02006287       268.253       498.540         9.362         0.945         5.224
  HS02004817HS02004807        86.887       154.860         4.956         0.568         2.972
  HS02004807HS02004802       103.112       187.242         5.194         0.580         3.075
  YS02001759YS02001757       287.425       520.431         5.805         0.403         2.841
  YS02001762YS02001759       173.541       317.701         3.635         0.256         1.796
  YS02001765YS02001762       174.473       320.140         3.676         0.260         1.819
  YS02001770YS02001767       175.663       324.115         3.536         0.236         1.720
  YS02001774YS02001770       226.799       432.956         4.400         0.292         2.128
  YS02001779YS02001774       226.155       431.657         4.493         0.306         2.192
  YS02001649YS02001757       366.776       657.621         7.431         0.510         3.580
  YS02001767YS02001765       175.700       322.995         3.716         0.263         1.840
  YS02006561YS02001783       940.532      1725.289        19.903         1.492         9.930
  YS02001783YS02001784       940.471      1725.214        19.900         1.492         9.928
  YS02001784YS02001785       947.804      1736.962        20.613         1.581        10.374
  YS02001788YS02001790       948.443      1738.018        20.686         1.591        10.420
  YS02001790YS02001791       949.604      1739.911        20.789         1.604        10.484
  YS02001791YS02001793       949.529      1739.799        20.784         1.603        10.482
  YS02001910YS02001907       330.246       599.475         8.220         0.640         4.245
  YS02001786YS02001788       948.021      1737.324        20.641         1.585        10.392
  YS02001915YS02001910       330.270       599.495         8.175         0.634         4.215
  YS02001918YS02001915       157.604       273.596         4.595         0.428         2.502
  YS02001923YS02001920       136.665       239.810         2.623         0.182         1.272
  YS02001926YS02001923       136.388       239.390         2.586         0.178         1.248
  YS02001929YS02001926       136.165       239.019         2.555         0.174         1.228
  YS02001920YS02001918       156.594       271.695         4.544         0.423         2.472
  YS02001629YS02163301       103.539       183.459         2.171         0.140         1.012
  YS02001619YS02001622       146.394       262.930         3.031         0.197         1.414
  YS02001622YS02001625       145.244       261.114         3.003         0.195         1.401
  YS02001625YS02001629       104.626       185.256         2.195         0.142         1.023
  YS02163301YS02001633       103.259       182.985         2.164         0.140         1.010
  YS02163601YS02164001       362.076       646.268         7.117         0.502         3.404
  YS02164001YS02001641       361.598       645.465         7.097         0.501         3.393
  YS02001641YS02001644       361.832       645.787         7.096         0.500         3.392
  YS02001647YS02001649       429.671       777.051         8.623         0.595         4.131
  YS02006553YS02006556       661.892      1208.634        14.303         1.099         7.210
  YS02006556YS02006558       661.919      1208.679        14.272         1.094         7.190
  YSB6556YSB1171              21.951        42.195         0.451         0.038         0.229
  YS02001907YS02006553       661.978      1208.811        14.316         1.101         7.219
  YS02006558YS02006561       940.503      1725.223        19.902         1.492         9.930
  YS02001633YS02163601       362.755       647.314         7.096         0.498         3.387
  YS02001644YS02001647       435.367       787.156         8.707         0.601         4.168
  YS02001745YS02001748       208.808       384.453         4.605         0.315         2.283
  YS02001748YS02001751       207.597       382.020         4.694         0.329         2.347
  YS02001751YS02001754       206.620       380.419         4.676         0.329         2.339
  YS02001754YS02001757       207.392       381.584         4.839         0.351         2.446
  YS02001882YS02001884         2.855         4.927         0.057         0.004         0.029
  YS02001884YS02001887         7.115        12.580         0.139         0.011         0.069
  YS02001890YS02001895       389.641       720.975         7.192         0.540         3.510
  YS02001895YS02001898       389.519       720.833         7.187         0.539         3.507
  YS02001898YS02001901       389.393       720.635         7.184         0.539         3.505
  YS02001901YS02001904       389.297       720.527         7.191         0.540         3.511
  YS02001904YS02001907       389.636       721.091         7.247         0.547         3.546
  YS02001887YS02001890       390.390       722.077         7.246         0.546         3.542
  YS02001652YS02001649       160.088       292.599         3.265         0.234         1.530
  YS02001655YS02001652       160.757       293.675         3.283         0.236         1.538
  YS02001658YS02001655       160.371       293.046         3.199         0.224         1.483
  YS02001661YS02001658       164.069       299.601         3.275         0.230         1.518
  YS02001664YS02001661       179.075       324.421         3.610         0.252         1.672
  YSB1154YSB6556              21.532        41.528         0.402         0.032         0.198
  YSB1174YSB1171              14.653        28.289         0.298         0.024         0.149
  YSB1171HS02004479           38.101        72.904         0.887         0.079         0.465
  HS02004881HS02006253        42.062        82.019         0.929         0.068         0.458
  YS02001793JiankangQianchi       950.225      1740.951        20.819         1.607        10.502
  YS02001757CaochengTiaoxuchi       510.967       914.248        10.832         0.778         5.327
  WSF200WS02003060           694.763      1280.298        19.035         1.704        10.124
  1                         2250.327      3834.399       150.763        17.880        91.601
  CC-Pump-1                  120.142       216.833         2.522         0.183         1.240
  CC-Pump-2                   49.541        89.304         1.041         0.075         0.512
  JK-Pump-1                  242.805       448.231         5.211         0.398         2.615
  JK-Pump-2                  494.280       921.439        10.347         0.782         5.165
  XR-Pump-1                  364.932       600.780        30.454         3.731        18.812
  XR-Pump-2                  353.948       583.205        29.407         3.601        18.158
  XR-Pump-3                  353.948       583.205        29.407         3.601        18.158
  XR-Pump-4                  353.948       583.205        29.407         3.601        18.158
  

  Analysis begun on:  Thu Jul 15 22:32:37 2021
  Analysis ended on:  Thu Jul 15 22:32:40 2021
  Total elapsed time: 00:00:03