
  EPA STORM WATER MANAGEMENT MODEL - VERSION 5.1 (Build 5.3.0.dev0)
  --------------------------------------------------------------

  WARNING 04: minimum elevation drop used for Conduit WS02004404WS02004405
  WARNING 03: negative offset ignored for Link YS02001904YS02001907
  
  *********************************************************
  NOTE: The summary statistics displayed in this report are
  based on results found at every computational time step,  
  not just on results from each reporting time step.
  *********************************************************
  
  ****************
  Analysis Options
  ****************
  Flow Units ............... LPS
  Process Models:
    Rainfall/Runoff ........ YES
    RDII ................... NO
    Snowmelt ............... NO
    Groundwater ............ NO
    Flow Routing ........... YES
    Ponding Allowed ........ NO
    Water Quality .......... YES
  Infiltration Method ...... HORTON
  Flow Routing Method ...... DYNWAVE
  Surcharge Method ......... EXTRAN
  Starting Date ............ 08/28/2015 08:00:00
  Ending Date .............. 08/28/2015 15:50:00
  Antecedent Dry Days ...... 8.0
  Report Time Step ......... 00:01:00
  Wet Time Step ............ 00:01:00
  Dry Time Step ............ 00:01:00
  Routing Time Step ........ 5.00 sec
  Variable Time Step ....... YES
  Maximum Trials ........... 8
  Number of Threads ........ 4
  Head Tolerance ........... 0.001500 m
  
  
  **************************        Volume         Depth
  Runoff Quantity Continuity     hectare-m            mm
  **************************     ---------       -------
  Total Precipitation ......         5.556        12.164
  Evaporation Loss .........         0.000         0.000
  Infiltration Loss ........         1.002         2.194
  Surface Runoff ...........         3.688         8.075
  Final Storage ............         0.866         1.897
  Continuity Error (%) .....        -0.019
  
  
  **************************           COD            SS            TN            TP         NH4-N
  Runoff Quality Continuity             kg            kg            kg            kg            kg
  **************************    ----------    ----------    ----------    ----------    ----------
  Initial Buildup ..........     41378.656     70582.865      1804.177       168.684      1032.807
  Surface Buildup ..........        19.275        34.271         2.335         0.213         1.362
  Wet Deposition ...........         0.000         0.000         0.000         0.000         0.000
  Sweeping Removal .........         0.000         0.000         0.000         0.000         0.000
  Infiltration Loss ........        84.023       157.502         1.599         0.111         0.761
  BMP Removal ..............         0.000         0.000         0.000         0.000         0.000
  Surface Runoff ...........      3122.074      5752.154        60.620         4.098        28.771
  Remaining Buildup ........     38190.779     64705.500      1744.271       164.686      1004.628
  Continuity Error (%) .....         0.003         0.003         0.001         0.001         0.001
  
  
  **************************        Volume        Volume
  Flow Routing Continuity        hectare-m      10^6 ltr
  **************************     ---------     ---------
  Dry Weather Inflow .......         0.616         6.165
  Wet Weather Inflow .......         3.687        36.870
  Groundwater Inflow .......         0.000         0.000
  RDII Inflow ..............         0.000         0.000
  External Inflow ..........         0.102         1.024
  External Outflow .........         1.864        18.637
  Flooding Loss ............         2.099        20.987
  Evaporation Loss .........         0.000         0.000
  Exfiltration Loss ........         0.000         0.000
  Initial Stored Volume ....         0.076         0.761
  Final Stored Volume ......         0.635         6.353
  Continuity Error (%) .....        -2.584
  
  
  **************************           COD            SS            TN            TP         NH4-N
  Quality Routing Continuity            kg            kg            kg            kg            kg
  **************************    ----------    ----------    ----------    ----------    ----------
  Dry Weather Inflow .......      1541.201      2465.922       147.955        18.494        92.472
  Wet Weather Inflow .......      3121.255      5750.748        60.603         4.097        28.763
  Groundwater Inflow .......         0.000         0.000         0.000         0.000         0.000
  RDII Inflow ..............         0.000         0.000         0.000         0.000         0.000
  External Inflow ..........       183.418       293.469        17.608         2.201        11.005
  External Outflow .........      2234.578      3810.423       149.025        17.662        90.514
  Flooding Loss ............      1934.068      3536.931        50.315         4.382        26.477
  Exfiltration Loss ........         0.000         0.000         0.000         0.000         0.000
  Mass Reacted .............         0.000         0.000         0.000         0.000         0.000
  Initial Stored Mass ......         0.000         0.000         0.000         0.000         0.000
  Final Stored Mass ........       541.405       930.182        23.576         2.499        13.615
  Continuity Error (%) .....         2.803         2.733         1.437         1.006         1.235
  
  
  *************************
  Highest Continuity Errors
  *************************
  Node HS02004842 (14.53%)
  Node YS02001884 (11.83%)
  Node JK-storage (-11.35%)
  Node YSB1171 (2.74%)
  Node HS02004817 (2.73%)
  
  
  ***************************
  Time-Step Critical Elements
  ***************************
  Link WS02006252WS02006251 (62.22%)
  Link WS02006280WS02006229 (10.67%)
  Link WS02006238WS02006235 (7.30%)
  Link YS02001793JiankangQianchi (4.44%)
  Link YS02006556YS02006558 (3.27%)
  
  
  ********************************
  Highest Flow Instability Indexes
  ********************************
  Link WS02006113WS02006111 (47)
  Link YS02163601YS02164001 (43)
  Link YS02001629YS02163301 (42)
  Link YS02163301YS02001633 (42)
  Link YS02001619YS02001622 (42)
  
  
  *************************
  Routing Time Step Summary
  *************************
  Minimum Time Step           :     0.38 sec
  Average Time Step           :     1.23 sec
  Maximum Time Step           :     5.00 sec
  Percent in Steady State     :    -0.00
  Average Iterations per Step :     4.65
  Percent Not Converging      :    23.61
  
  
  ***************************
  Subcatchment Runoff Summary
  ***************************
  
  ------------------------------------------------------------------------------------------------------------------------------
                            Total      Total      Total      Total     Imperv       Perv      Total       Total     Peak  Runoff
                           Precip      Runon       Evap      Infil     Runoff     Runoff     Runoff      Runoff   Runoff   Coeff
  Subcatchment                 mm         mm         mm         mm         mm         mm         mm    10^6 ltr      LPS
  ------------------------------------------------------------------------------------------------------------------------------
  sub0                      12.16       0.00       0.00       0.65      11.27       0.20      11.47        0.01     1.99   0.943
  sub1                      12.16       0.00       0.00       1.12      10.73       0.22      10.95        0.07    14.96   0.900
  sub2                      12.16       0.00       0.00       4.23       7.58       0.27       7.85        0.07    15.08   0.646
  sub3                      12.16       0.00       0.00       4.29       7.54       0.21       7.75        0.17    34.61   0.637
  sub4                      12.16       0.00       0.00       1.19      10.57       0.14      10.71        0.22    42.34   0.881
  sub5                      12.16       0.00       0.00       0.69      11.21       0.16      11.38        0.13    26.18   0.935
  sub7                      12.16       0.00       0.00       0.88      11.01       0.22      11.22        0.04     7.95   0.923
  sub8                      12.16       0.00       0.00       0.89      11.00       0.21      11.20        0.07    14.89   0.921
  sub9                      12.16       0.00       0.00       0.89      10.99       0.21      11.20        0.05    11.18   0.921
  sub10                     12.16       0.00       0.00       0.79      11.10       0.18      11.28        0.12    25.49   0.928
  sub11                     12.16       0.00       0.00       0.78      11.12       0.19      11.31        0.13    27.35   0.930
  sub12                     12.16       0.00       0.00       1.27      10.53       0.31      10.85        0.09    20.52   0.892
  sub14                     12.16       0.00       0.00       0.89      10.99       0.20      11.20        0.11    22.08   0.920
  sub15                     12.16       0.00       0.00       3.28       8.45       0.37       8.82        0.15    32.49   0.725
  sub16                     12.16       0.00       0.00       3.51       8.11       0.50       8.61        0.09    20.36   0.708
  sub17                     12.16       0.00       0.00       3.41       8.23       0.48       8.71        0.07    16.72   0.716
  sub22                     12.16       0.00       0.00       4.80       6.89       0.43       7.32        0.46   102.62   0.602
  sub23                     12.16       0.00       0.00       4.05       7.62       0.45       8.07        0.38    85.35   0.663
  sub60                     12.16       0.00       0.00       1.42       8.82       0.04       8.86        2.69   336.84   0.729
  sub61                     12.16       0.00       0.00       2.01       8.94       0.06       9.00        2.78   399.45   0.740
  sub62                     12.16       0.00       0.00       0.92       9.73       0.05       9.78        3.01   415.79   0.804
  sub63                     12.16       0.00       0.00       3.46       7.82       0.06       7.88        2.39   361.21   0.648
  sub64                     12.16       0.00       0.00       1.78       8.47       0.04       8.51        2.59   320.97   0.699
  sub65                     12.16       0.00       0.00       1.54       8.61       0.04       8.65        2.66   326.54   0.711
  sub66                     12.16       0.00       0.00       3.49       7.26       0.04       7.30        2.24   290.53   0.600
  sub67                     12.16       0.00       0.00       0.91      10.24       0.07      10.31        3.18   494.23   0.848
  sub68                     12.16       0.00       0.00       1.64       9.40       0.06       9.46        2.91   432.52   0.778
  sub69                     12.16       0.00       0.00       1.73       9.72       0.09       9.82        2.29   383.95   0.807
  sub70                     12.16      10.02       0.00       6.98      13.09       0.56      13.65        3.12   394.93   0.615
  sub71                     12.16       0.00       0.00       0.93       9.48       0.05       9.53        2.25   296.34   0.783
  sub72                     12.16       0.00       0.00       0.83       7.62       0.02       7.64        1.56   151.13   0.628
  1                         12.16      13.29       0.00       1.37      14.64       3.94      18.57        4.36   399.24   0.730
  2                         12.16       0.00       0.00       3.02       2.89       1.65       4.55        1.82   245.52   0.374
  
  
  ****************************
  Subcatchment Washoff Summary
  ****************************
  
  ------------------------------------------------------------------------------------------
                                 COD            SS            TN            TP         NH4-N
  Subcatchment                    kg            kg            kg            kg            kg
  ------------------------------------------------------------------------------------------
  sub0                         2.176         4.147         0.037         0.003         0.018
  sub1                         9.268        18.138         0.173         0.012         0.083
  sub2                         5.563        10.570         0.119         0.008         0.054
  sub3                        13.747        25.918         0.288         0.019         0.132
  sub4                        21.530        42.606         0.429         0.026         0.205
  sub5                        21.300        41.103         0.378         0.029         0.183
  sub7                         4.748         9.424         0.090         0.006         0.043
  sub8                         7.142        14.500         0.143         0.008         0.069
  sub9                         6.100        12.212         0.118         0.007         0.057
  sub10                       17.532        34.266         0.321         0.023         0.155
  sub11                       17.086        33.770         0.320         0.022         0.154
  sub12                       14.392        27.890         0.260         0.019         0.125
  sub14                       13.021        25.823         0.247         0.016         0.119
  sub15                       16.182        30.744         0.313         0.023         0.146
  sub16                       10.318        19.555         0.197         0.015         0.092
  sub17                        9.471        17.789         0.175         0.014         0.082
  sub22                       48.821        90.813         0.932         0.070         0.434
  sub23                       29.138        56.181         0.627         0.041         0.287
  sub60                      203.703       376.194         4.083         0.248         1.956
  sub61                      251.300       461.579         4.699         0.320         2.261
  sub62                      262.762       491.326         5.157         0.324         2.474
  sub63                      185.047       334.594         3.739         0.261         1.731
  sub64                      253.867       452.095         4.687         0.339         2.235
  sub65                      260.106       465.192         4.834         0.344         2.309
  sub66                      146.558       263.078         3.037         0.197         1.417
  sub67                      388.205       718.566         6.963         0.510         3.363
  sub68                      276.714       513.393         5.318         0.356         2.539
  sub69                      247.676       464.012         4.658         0.325         2.225
  sub70                      413.256       778.342         8.287         0.572         3.877
  sub71                      173.740       327.842         3.597         0.206         1.720
  sub72                      136.329       239.316         2.558         0.174         1.230
  1                          280.724       531.718         5.751         0.398         2.660
  2                           35.485        61.812         1.030         0.062         0.437
  ------------------------------------------------------------------------------------------
  System                    3783.006      6994.507        73.566         4.996        34.873
  
  
  ******************
  Node Depth Summary
  ******************
  
  ---------------------------------------------------------------------------------
                                 Average  Maximum  Maximum  Time of Max    Reported
                                   Depth    Depth      HGL   Occurrence   Max Depth
  Node                 Type       Meters   Meters   Meters  days hr:min      Meters
  ---------------------------------------------------------------------------------
  WS02001211           JUNCTION     0.77     0.83     5.67     0  03:08        0.83
  WS02001212           JUNCTION     0.47     0.56     5.62     0  03:08        0.56
  WS02001213           JUNCTION     0.71     0.83     5.59     0  03:07        0.83
  WS02003069           JUNCTION     0.50     0.68     5.27     0  03:07        0.68
  WS02003072           JUNCTION     0.56     0.73     5.10     0  03:07        0.73
  WS02003073           JUNCTION     0.34     0.46     4.52     0  03:08        0.46
  WS02003060           JUNCTION     0.44     0.60     5.53     0  03:06        0.60
  WS02003066           JUNCTION     0.23     0.36     5.92     0  03:05        0.36
  WS02003059           JUNCTION     0.76     0.88     5.57     0  03:07        0.88
  WS02003067           JUNCTION     0.57     0.79     6.11     0  03:04        0.79
  WS02004401           JUNCTION     0.68     1.14     7.14     0  03:02        1.14
  WS02004402           JUNCTION     0.71     1.14     7.10     0  03:00        1.13
  WS02004403           JUNCTION     0.73     1.13     7.06     0  03:02        1.12
  WS02004404           JUNCTION     0.80     1.18     7.03     0  03:02        1.17
  WS02004406           JUNCTION     0.81     1.12     6.95     0  03:02        1.11
  WS02004409           JUNCTION     0.50     0.87     6.64     0  03:04        0.87
  WS02004410           JUNCTION     0.52     0.87     6.59     0  03:04        0.87
  WS02004411           JUNCTION     0.53     0.86     6.54     0  03:04        0.86
  WS02004412           JUNCTION     0.54     0.85     6.49     0  03:04        0.85
  WS02004413           JUNCTION     0.70     0.98     6.45     0  03:04        0.98
  WS02004405           JUNCTION     0.80     1.16     7.01     0  03:03        1.15
  WS02006109           JUNCTION     0.78     1.31     7.93     0  03:02        1.31
  WS02006110           JUNCTION     0.76     1.15     7.74     0  03:02        1.15
  WS02006111           JUNCTION     0.23     0.65     7.36     0  03:03        0.65
  WS02006112           JUNCTION     0.86     1.42     7.30     0  03:01        1.41
  WS02006113           JUNCTION     0.35     0.65     7.54     0  03:02        0.65
  WS02006115           JUNCTION     0.58     1.09     7.23     0  03:02        1.09
  WS02006116           JUNCTION     0.66     1.14     7.18     0  03:01        1.14
  WS02006230           JUNCTION     0.76     1.52     8.26     0  03:02        1.51
  WS02006231           JUNCTION     0.51     1.22     8.34     0  03:02        1.21
  WS02006232           JUNCTION     0.64     1.36     8.40     0  03:03        1.36
  WS02006234           JUNCTION     0.58     1.32     8.48     0  03:02        1.31
  WS02006235           JUNCTION     0.61     1.37     8.54     0  03:01        1.36
  WS02006238           JUNCTION     0.63     1.39     8.54     0  03:02        1.38
  WS02006240           JUNCTION     0.53     1.28     8.58     0  03:02        1.28
  WS02006242           JUNCTION     0.58     1.33     8.60     0  03:01        1.33
  WS02006243           JUNCTION     0.46     1.21     8.63     0  03:03        1.21
  WS02006245           JUNCTION     0.43     1.17     8.65     0  03:02        1.16
  WS02006247           JUNCTION     0.44     1.17     8.67     0  03:01        1.16
  WS02006248           JUNCTION     0.38     1.10     8.69     0  06:42        1.09
  WS02006249           JUNCTION     0.40     1.09     8.69     0  02:56        1.09
  WS02006239           JUNCTION     0.59     1.35     8.56     0  03:01        1.33
  WS02006251           JUNCTION     0.38     1.54     9.21     0  02:56        1.19
  WS02006252           JUNCTION     0.27     1.04     9.28     0  02:56        0.75
  WS02006253           JUNCTION     0.41     2.43    10.08     0  02:56        1.23
  WS02006256           JUNCTION     1.67     2.35     9.28     0  01:38        2.35
  WS02004138           JUNCTION     0.19     0.20     7.45     0  00:00        0.19
  WS02004139           JUNCTION     0.71     0.77     5.68     0  03:08        0.77
  WS02004407           JUNCTION     0.22     0.37     6.68     0  03:03        0.37
  WS02006228           JUNCTION     0.78     1.44     8.09     0  03:02        1.43
  WS02006229           JUNCTION     0.76     1.49     8.18     0  03:02        1.48
  WS02006280           JUNCTION     0.07     0.20     8.47     0  03:02        0.20
  WS02006284           JUNCTION     0.37     0.56     8.96     0  03:02        0.56
  WS02006287           JUNCTION     0.10     0.30     9.25     0  03:01        0.30
  WSF200               JUNCTION     0.22     0.40     5.64     0  03:05        0.40
  HS02004901           JUNCTION     0.13     0.29    10.12     0  03:01        0.29
  HS02004881           JUNCTION     0.01     0.04     9.07     0  02:56        0.04
  HS02004876           JUNCTION     0.04     0.12     9.15     0  03:01        0.12
  HS02004870           JUNCTION     0.02     0.07     9.35     0  03:01        0.07
  HS02004862           JUNCTION     0.02     0.08     9.46     0  03:01        0.08
  HS02004856           JUNCTION     0.08     0.13     9.55     0  03:01        0.13
  HS02004852           JUNCTION     0.01     0.05     9.56     0  03:01        0.05
  HS02004848           JUNCTION     0.01     0.05     9.65     0  03:01        0.05
  HS02004842           JUNCTION     0.34     0.38     9.65     0  03:01        0.38
  HS02004837           JUNCTION     0.03     0.07     9.65     0  03:01        0.07
  HS02004830           JUNCTION     0.04     0.08     9.55     0  03:01        0.08
  HS02004824           JUNCTION     0.02     0.06     9.47     0  03:01        0.06
  HS02004817           JUNCTION     0.45     0.61     9.45     0  03:01        0.61
  HS02004807           JUNCTION     0.13     0.28     9.45     0  03:01        0.28
  HS02004802           JUNCTION     0.17     0.31     9.44     0  03:01        0.31
  HS02004799           JUNCTION     0.12     0.35     9.56     0  03:01        0.35
  HS02004792           JUNCTION     0.04     0.15     9.67     0  03:01        0.15
  HS02004788           JUNCTION     0.03     0.11    10.01     0  03:01        0.11
  HS02004785           JUNCTION     0.05     0.18    10.09     0  03:01        0.18
  HS02004777           JUNCTION     0.15     0.31    10.11     0  03:01        0.31
  HS02004770           JUNCTION     0.12     0.29    10.12     0  03:01        0.29
  HS02004480           JUNCTION     0.08     0.28     9.52     0  03:01        0.28
  HS02004479           JUNCTION     0.12     0.32     9.52     0  03:01        0.32
  HS02004478           JUNCTION     0.06     0.20     9.42     0  03:01        0.20
  YS02001745           JUNCTION     0.74     0.91     8.43     0  03:00        0.91
  YS02001748           JUNCTION     1.14     1.99     9.07     0  02:27        1.35
  YS02001751           JUNCTION     1.32     2.00     8.88     0  02:27        1.55
  YS02001754           JUNCTION     1.58     1.98     8.59     0  02:27        1.81
  YS02001762           JUNCTION     1.78     2.04     8.44     0  03:10        2.02
  YS02001765           JUNCTION     1.73     1.99     8.44     0  02:56        1.97
  YS02001767           JUNCTION     1.69     1.94     8.43     0  02:56        1.92
  YS02001770           JUNCTION     1.69     1.92     8.42     0  02:56        1.91
  YS02001774           JUNCTION     1.76     1.98     8.40     0  03:09        1.97
  YS02001779           JUNCTION     1.50     1.68     8.37     0  02:18        1.68
  YS02001882           JUNCTION     0.55     1.62     8.34     0  03:00        1.61
  YS02001884           JUNCTION     0.64     1.72     8.33     0  03:00        1.71
  YS02001759           JUNCTION     1.81     2.08     8.44     0  03:15        2.06
  YS02001887           JUNCTION     0.72     1.80     8.33     0  02:59        1.79
  YS02001890           JUNCTION     0.75     1.81     8.32     0  02:57        1.81
  YS02001898           JUNCTION     0.52     1.56     8.29     0  02:56        1.55
  YS02001901           JUNCTION     0.63     1.67     8.28     0  02:59        1.67
  YS02001904           JUNCTION     0.61     1.64     8.27     0  03:00        1.63
  YS02001907           JUNCTION     0.94     1.96     8.25     0  02:44        1.96
  YS02001910           JUNCTION     0.73     1.77     8.28     0  02:46        1.77
  YS02001915           JUNCTION     0.53     1.58     8.30     0  02:46        1.57
  YS02001918           JUNCTION     0.28     1.25     8.32     0  02:46        1.24
  YS02001619           JUNCTION     1.28     1.61     8.54     0  02:27        1.47
  YS02001629           JUNCTION     1.64     1.85     8.40     0  02:27        1.84
  YS02001641           JUNCTION     1.74     1.94     8.37     0  02:36        1.93
  YS02001644           JUNCTION     1.74     1.92     8.35     0  02:35        1.92
  YS02001652           JUNCTION     1.59     2.16     8.76     0  02:19        1.90
  YS02001655           JUNCTION     1.35     2.13     8.98     0  02:39        1.71
  YS02001920           JUNCTION     0.38     1.33     8.34     0  02:46        1.31
  YS02001923           JUNCTION     0.22     1.08     8.34     0  02:46        1.07
  YS02001926           JUNCTION     0.28     0.91     8.35     0  02:46        0.89
  YS02001929           JUNCTION     0.16     0.68     8.37     0  02:45        0.67
  YS02001658           JUNCTION     1.08     2.12     9.26     0  02:39        1.51
  YS02001661           JUNCTION     0.85     2.11     9.51     0  02:39        1.35
  YS02001664           JUNCTION     0.38     0.57     8.50     0  04:03        0.55
  YS02001622           JUNCTION     1.31     1.62     8.52     0  02:27        1.49
  YS02001633           JUNCTION     1.73     1.98     8.44     0  02:28        1.94
  YS02001649           JUNCTION     1.79     2.05     8.44     0  02:37        2.05
  YS02001757           JUNCTION     1.91     2.18     8.44     0  03:16        2.17
  YS02001895           JUNCTION     0.51     1.56     8.31     0  03:00        1.55
  YS02001625           JUNCTION     1.59     1.78     8.38     0  02:26        1.78
  YS02163301           JUNCTION     1.67     1.94     8.46     0  02:28        1.88
  YS02163601           JUNCTION     1.78     2.00     8.40     0  06:02        1.98
  YS02164001           JUNCTION     1.72     1.93     8.38     0  06:02        1.91
  YS02001647           JUNCTION     1.57     1.81     8.42     0  02:37        1.79
  YSB1154              JUNCTION     0.26     0.47     9.52     0  03:01        0.47
  YSB6556              JUNCTION     0.15     0.35     9.52     0  03:01        0.35
  YSB1174              JUNCTION     0.21     0.41     9.52     0  03:01        0.41
  YSB1171              JUNCTION     0.41     0.62     9.52     0  03:01        0.62
  YS02006553           JUNCTION     0.95     1.97     8.25     0  02:59        1.96
  YS02006561           JUNCTION     0.31     1.08     7.74     0  02:49        1.07
  YS02006556           JUNCTION     0.91     1.92     8.23     0  02:59        1.92
  YS02006558           JUNCTION     0.95     1.96     8.23     0  03:00        1.95
  YS02001783           JUNCTION     0.52     1.47     7.61     0  02:49        1.46
  YS02001784           JUNCTION     0.54     1.46     7.53     0  02:34        1.40
  YS02001786           JUNCTION     0.48     1.57     7.60     0  02:34        1.25
  YS02001788           JUNCTION     0.41     1.52     7.50     0  02:34        1.12
  YS02001790           JUNCTION     0.52     1.96     7.60     0  04:31        1.29
  YS02001791           JUNCTION     0.48     2.17     7.64     0  04:30        1.27
  YS02001793           JUNCTION     0.67     2.69     7.53     0  04:29        1.80
  WSC                  OUTFALL      0.34     0.46     1.13     0  03:08        0.46
  JK-storage           STORAGE      3.06     5.80     6.60     0  02:01        5.80
  CC-storage           STORAGE      1.17     1.41     8.41     0  03:14        1.41
  XR-storage           STORAGE      6.61     7.72     5.72     0  02:52        7.72
  
  
  *******************
  Node Inflow Summary
  *******************
  
  -------------------------------------------------------------------------------------------------
                                  Maximum  Maximum                  Lateral       Total        Flow
                                  Lateral    Total  Time of Max      Inflow      Inflow     Balance
                                   Inflow   Inflow   Occurrence      Volume      Volume       Error
  Node                 Type           LPS      LPS  days hr:min    10^6 ltr    10^6 ltr     Percent
  -------------------------------------------------------------------------------------------------
  WS02001211           JUNCTION      7.35   391.18     0  03:15       0.207          10       0.395
  WS02001212           JUNCTION      0.00   394.84     0  03:16           0        9.99       0.223
  WS02001213           JUNCTION      0.00   398.47     0  03:16           0        9.96       0.284
  WS02003069           JUNCTION      0.32  1224.25     0  03:06     0.00902        18.7       0.162
  WS02003072           JUNCTION      0.00  1224.18     0  03:07           0        18.7       0.198
  WS02003073           JUNCTION      1.82  1226.14     0  03:07      0.0514        18.7       0.221
  WS02003060           JUNCTION     16.53  1223.74     0  03:06       0.466        18.7       0.157
  WS02003066           JUNCTION      0.00   830.04     0  03:05           0        8.36       0.047
  WS02003059           JUNCTION      0.00   402.82     0  03:15           0        9.94       0.391
  WS02003067           JUNCTION      0.00   829.88     0  03:04           0        8.37       0.100
  WS02004401           JUNCTION      0.00   831.40     0  03:03           0        8.59       0.260
  WS02004402           JUNCTION      0.00   832.02     0  03:03           0        8.57       0.243
  WS02004403           JUNCTION      0.00   831.42     0  03:03           0        8.55       0.220
  WS02004404           JUNCTION      0.16   831.94     0  03:03     0.00457        8.53       0.140
  WS02004406           JUNCTION      0.00   831.19     0  03:03           0         8.5       0.396
  WS02004409           JUNCTION      0.00   831.00     0  03:03           0        8.46       0.179
  WS02004410           JUNCTION      0.00   830.36     0  03:03           0        8.45       0.199
  WS02004411           JUNCTION      0.00   830.02     0  03:04           0        8.43       0.201
  WS02004412           JUNCTION      0.00   829.87     0  03:04           0        8.41       0.218
  WS02004413           JUNCTION      0.00   829.86     0  03:04           0        8.39       0.330
  WS02004405           JUNCTION      0.04   832.98     0  03:03     0.00107        8.52       0.246
  WS02006109           JUNCTION      1.23   818.68     0  03:02      0.0347        8.64       0.223
  WS02006110           JUNCTION      0.00   818.46     0  03:02           0        8.62       0.259
  WS02006111           JUNCTION      0.00   818.00     0  03:03           0        8.59       0.059
  WS02006112           JUNCTION     16.72   831.26     0  03:03      0.0747        8.66       0.324
  WS02006113           JUNCTION      0.00   818.43     0  03:02           0         8.6       0.133
  WS02006115           JUNCTION      0.00   831.02     0  03:03           0        8.63       0.272
  WS02006116           JUNCTION      0.00   831.39     0  03:03           0        8.61       0.221
  WS02006230           JUNCTION     10.28   531.37     0  05:02        0.29        6.48       0.179
  WS02006231           JUNCTION      0.00   521.14     0  05:02           0         6.2       0.257
  WS02006232           JUNCTION      0.00   520.93     0  05:03           0        6.22       0.255
  WS02006234           JUNCTION      0.00   521.11     0  05:02           0        6.23       0.182
  WS02006235           JUNCTION      0.00   521.98     0  05:03           0        6.31       0.168
  WS02006238           JUNCTION      0.00   377.61     0  07:50           0        2.94       0.246
  WS02006240           JUNCTION      0.00   382.77     0  07:49           0        2.87       0.566
  WS02006242           JUNCTION      0.00   382.63     0  07:49           0        2.87       0.663
  WS02006243           JUNCTION      0.00   382.83     0  07:49           0        2.87       0.308
  WS02006245           JUNCTION      0.00   383.16     0  07:49           0        2.88       0.639
  WS02006247           JUNCTION      0.00   385.65     0  07:43           0         2.9       0.416
  WS02006248           JUNCTION      0.00   389.99     0  07:43           0         2.9       0.262
  WS02006249           JUNCTION      0.00   486.28     0  03:00           0        3.03       0.623
  WS02006239           JUNCTION      0.00   378.72     0  07:50           0         2.9       0.211
  WS02006251           JUNCTION      0.08   485.79     0  03:00     0.00217        3.11       0.503
  WS02006252           JUNCTION      0.00   400.00     0  07:40           0        2.64       0.024
  WS02006253           JUNCTION      1.99   138.83     0  02:55     0.00928       0.475       2.372
  WS02006256           JUNCTION      0.00   983.00     0  02:10           0        9.56       0.012
  WS02004138           JUNCTION      0.00   380.00     0  00:00           0        9.86       0.069
  WS02004139           JUNCTION      0.32   394.45     0  00:00     0.00905        9.86       0.454
  WS02004407           JUNCTION      0.00   831.18     0  03:03           0        8.47       0.087
  WS02006228           JUNCTION      0.00   817.33     0  03:02           0        8.62       0.176
  WS02006229           JUNCTION      0.00   817.31     0  03:02           0        8.64       0.144
  WS02006280           JUNCTION      0.00   413.62     0  03:02           0        2.17       0.006
  WS02006284           JUNCTION      0.10   413.57     0  03:02      0.0027        2.17       0.042
  WS02006287           JUNCTION      0.00   413.22     0  03:01           0        2.17       0.033
  WSF200               JUNCTION      0.00   830.10     0  03:05           0        8.35       0.041
  HS02004901           JUNCTION     20.36    20.36     0  03:01      0.0902      0.0904       1.991
  HS02004881           JUNCTION      7.95    84.19     0  03:01      0.0378        0.41       0.098
  HS02004876           JUNCTION     14.96    76.75     0  03:01      0.0728       0.373       0.148
  HS02004870           JUNCTION     14.89    62.15     0  03:01      0.0716         0.3       0.037
  HS02004862           JUNCTION     15.28    47.68     0  03:01      0.0788       0.229       0.077
  HS02004856           JUNCTION     11.18    32.72     0  03:01      0.0539       0.152       0.965
  HS02004852           JUNCTION      0.00    21.94     0  03:01           0      0.0979       0.059
  HS02004848           JUNCTION     34.61    34.61     0  03:01       0.174       0.174       0.028
  HS02004842           JUNCTION      0.00    12.41     0  03:01           0      0.0895      16.999
  HS02004837           JUNCTION     31.84    43.95     0  03:01       0.303        0.38       0.214
  HS02004830           JUNCTION      0.15    43.86     0  03:01     0.00423        0.37       0.334
  HS02004824           JUNCTION     42.39    85.90     0  03:01       0.225       0.594       0.091
  HS02004817           JUNCTION      0.60    86.28     0  03:01      0.0169        0.61       2.809
  HS02004807           JUNCTION     27.35   112.31     0  03:01       0.131       0.726       0.604
  HS02004802           JUNCTION      0.00   111.37     0  03:01           0       0.723       0.549
  HS02004799           JUNCTION     22.08   258.93     0  03:01       0.107        1.24       0.223
  HS02004792           JUNCTION    102.90   238.00     0  03:01        0.47        1.14       0.036
  HS02004788           JUNCTION     34.16   135.93     0  03:01       0.199       0.669       0.058
  HS02004785           JUNCTION      0.15   103.52     0  03:01     0.00423       0.471       0.106
  HS02004777           JUNCTION      0.03   104.16     0  03:01    0.000846       0.472       1.115
  HS02004770           JUNCTION     85.35   105.11     0  03:01       0.385       0.473       0.659
  HS02004480           JUNCTION      0.00   302.45     0  03:01           0        1.46       0.076
  HS02004479           JUNCTION      0.00    44.91     0  03:02           0       0.232       0.317
  HS02004478           JUNCTION      0.00   413.09     0  03:01           0        2.17       0.014
  YS02001745           JUNCTION    336.84   409.57     0  02:26        2.69         2.7       0.399
  YS02001748           JUNCTION      0.04   577.08     0  02:26     0.00127        2.69       0.791
  YS02001751           JUNCTION      0.01   341.96     0  03:01     0.00031        2.66       0.898
  YS02001754           JUNCTION      0.26   343.15     0  03:01     0.00733        2.64       0.949
  YS02001762           JUNCTION      0.00   290.44     0  02:38           0        1.88       1.139
  YS02001765           JUNCTION      0.00   290.97     0  02:38           0        1.88       1.312
  YS02001767           JUNCTION      0.54   291.65     0  02:38      0.0151         1.9       1.897
  YS02001770           JUNCTION    415.94   534.80     0  03:01        3.01        3.48       0.915
  YS02001774           JUNCTION      0.00   535.12     0  03:01           0        2.03       1.250
  YS02001779           JUNCTION      0.01   536.20     0  03:01    0.000141           2       0.779
  YS02001882           JUNCTION      0.00    33.40     0  02:35           0      0.0164      16.277
  YS02001884           JUNCTION      0.00    69.04     0  02:35           0      0.0529      13.416
  YS02001759           JUNCTION    399.49   573.73     0  02:38        2.78        4.16       0.555
  YS02001887           JUNCTION    494.68   494.68     0  03:01        3.19        3.22       0.270
  YS02001890           JUNCTION      0.00   494.57     0  03:01           0        3.18       0.294
  YS02001898           JUNCTION      0.00   495.05     0  03:01           0        3.16       0.102
  YS02001901           JUNCTION      0.00   495.08     0  03:01           0        3.16       0.226
  YS02001904           JUNCTION      0.00   495.60     0  03:01           0        3.16       0.204
  YS02001907           JUNCTION      0.00   941.46     0  03:01           0        7.02       0.351
  YS02001910           JUNCTION      0.00   448.89     0  03:00           0        3.87       0.308
  YS02001915           JUNCTION    296.36   448.61     0  03:00        2.25         3.9       0.159
  YS02001918           JUNCTION      0.00   209.68     0  03:30           0        1.65       0.117
  YS02001619           JUNCTION    290.53   290.53     0  03:01        2.24        2.24       0.541
  YS02001629           JUNCTION      0.00   217.09     0  02:17           0        1.69       1.730
  YS02001641           JUNCTION      0.00   399.20     0  02:34           0        4.25       0.494
  YS02001644           JUNCTION    321.01  1312.22     0  03:01        2.59        10.5       0.250
  YS02001652           JUNCTION      0.00   381.69     0  03:01           0        2.35       1.003
  YS02001655           JUNCTION      0.15   387.46     0  02:18     0.00434        2.37       1.016
  YS02001920           JUNCTION      2.87   203.28     0  02:46      0.0809        1.64       0.183
  YS02001923           JUNCTION      0.04   223.48     0  02:46     0.00106        1.56       0.052
  YS02001926           JUNCTION      0.05   169.16     0  02:46     0.00147        1.56       0.210
  YS02001929           JUNCTION    151.13   151.13     0  03:01        1.56        1.56       0.037
  YS02001658           JUNCTION      0.00   602.65     0  02:23           0        2.41       0.906
  YS02001661           JUNCTION      0.00   629.16     0  02:38           0        2.75      -0.380
  YS02001664           JUNCTION    361.21   361.21     0  03:01        2.38        2.74       0.220
  YS02001622           JUNCTION      0.00   291.29     0  03:01           0        2.22       1.452
  YS02001633           JUNCTION    326.74   395.81     0  02:34        2.66        4.31       0.749
  YS02001649           JUNCTION      0.00   830.59     0  02:35           0        6.14       0.613
  YS02001757           JUNCTION      0.00  1577.61     0  02:35           0        8.79       1.056
  YS02001895           JUNCTION      0.00   495.03     0  03:00           0        3.17       0.167
  YS02001625           JUNCTION      0.00   290.80     0  03:01           0        2.19       1.810
  YS02163301           JUNCTION      0.00   205.51     0  02:26           0        1.67       1.465
  YS02163601           JUNCTION      0.11   396.91     0  02:34      0.0031        4.27       0.705
  YS02164001           JUNCTION      0.00   397.67     0  02:34           0        4.25       0.479
  YS02001647           JUNCTION      0.00   630.07     0  03:15           0        5.34       0.534
  YSB1154              JUNCTION     26.18    26.18     0  03:01       0.129        0.13       1.131
  YSB6556              JUNCTION      0.00    25.82     0  03:01           0        0.13       0.969
  YSB1174              JUNCTION     20.52    20.52     0  03:01      0.0948      0.0953       1.369
  YSB1171              JUNCTION      0.00    45.30     0  03:01           0       0.231       2.820
  YS02006553           JUNCTION      0.00   702.75     0  03:31           0        6.56       0.238
  YS02006561           JUNCTION      0.00   982.45     0  03:00           0        9.44       0.009
  YS02006556           JUNCTION      0.00   703.53     0  03:31           0        6.57       0.176
  YS02006558           JUNCTION    433.40   983.89     0  03:00        2.93        9.47       0.054
  YS02001783           JUNCTION      0.00   982.45     0  02:59           0        9.44       0.024
  YS02001784           JUNCTION      1.06   983.58     0  03:00      0.0299        9.47       0.036
  YS02001786           JUNCTION      0.06   983.57     0  03:00     0.00159        9.47       0.034
  YS02001788           JUNCTION      0.07   983.43     0  03:00       0.002        9.47       0.025
  YS02001790           JUNCTION      0.15   983.73     0  03:01     0.00437        9.47       0.015
  YS02001791           JUNCTION      0.00   983.78     0  03:01           0        9.47       0.013
  YS02001793           JUNCTION      0.00   984.29     0  03:00           0        9.47      -0.030
  WSC                  OUTFALL       0.00  1226.34     0  03:08           0        18.6       0.000
  JK-storage           STORAGE       0.00   984.57     0  03:00           0        9.62     -10.192
  CC-storage           STORAGE       0.00  1576.70     0  02:35           0        6.46       0.988
  XR-storage           STORAGE     844.76   844.76     0  03:01        11.8        12.4      -0.001
  
  
  **********************
  Node Surcharge Summary
  **********************
  
  Surcharging occurs when water rises above the top of the highest conduit.
  ---------------------------------------------------------------------
                                               Max. Height   Min. Depth
                                   Hours       Above Crown    Below Rim
  Node                 Type      Surcharged         Meters       Meters
  ---------------------------------------------------------------------
  WS02004401           JUNCTION        0.24          0.137        1.523
  WS02004402           JUNCTION        0.26          0.138        1.602
  WS02004403           JUNCTION        0.26          0.125        1.905
  WS02004404           JUNCTION        0.45          0.178        2.602
  WS02004406           JUNCTION        0.33          0.116        2.334
  WS02004405           JUNCTION        0.37          0.157        2.643
  WS02006109           JUNCTION        2.82          0.493        1.327
  WS02006110           JUNCTION        1.20          0.242        1.608
  WS02006112           JUNCTION        1.59          0.416        1.264
  WS02006115           JUNCTION        0.18          0.079        2.171
  WS02006116           JUNCTION        0.20          0.084        2.206
  WS02006230           JUNCTION        0.60          0.439        1.131
  WS02006231           JUNCTION        1.00          0.509        1.021
  WS02006232           JUNCTION        2.57          0.663        0.817
  WS02006234           JUNCTION        1.51          0.599        0.641
  WS02006235           JUNCTION        1.83          0.662        0.628
  WS02006238           JUNCTION        1.95          0.671        0.759
  WS02006240           JUNCTION        1.30          0.574        0.816
  WS02006242           JUNCTION        1.43          0.604        0.216
  WS02006243           JUNCTION        0.92          0.502        0.268
  WS02006245           JUNCTION        0.75          0.458        0.392
  WS02006247           JUNCTION        0.77          0.458        0.302
  WS02006248           JUNCTION        0.60          0.380        0.000
  WS02006249           JUNCTION        0.67          0.390        0.000
  WS02006239           JUNCTION        1.44          0.606        0.684
  WS02006251           JUNCTION        0.31          0.513        0.667
  WS02006252           JUNCTION        1.24          0.642        0.458
  WS02006253           JUNCTION        0.33          1.395        1.085
  WS02006256           JUNCTION        6.32          2.050        0.000
  WS02006228           JUNCTION        2.77          0.612        1.588
  YS02001748           JUNCTION        5.31          0.914        0.276
  YS02001751           JUNCTION        5.49          1.000        0.200
  YS02001754           JUNCTION        5.70          0.930        0.220
  YS02001762           JUNCTION        5.87          1.043        0.107
  YS02001765           JUNCTION        5.84          0.987        0.113
  YS02001767           JUNCTION        5.81          0.942        0.088
  YS02001770           JUNCTION        5.80          0.892        0.028
  YS02001774           JUNCTION        5.86          0.982        0.068
  YS02001779           JUNCTION        5.68          0.680        0.000
  YS02001882           JUNCTION        0.90          0.621        0.209
  YS02001884           JUNCTION        0.93          0.657        0.213
  YS02001759           JUNCTION        5.89          1.078        0.132
  YS02001887           JUNCTION        1.00          0.747        0.203
  YS02001890           JUNCTION        1.02          0.760        0.000
  YS02001898           JUNCTION        0.87          0.527        0.213
  YS02001901           JUNCTION        0.97          0.672        0.198
  YS02001904           JUNCTION        0.94          0.636        0.214
  YS02001907           JUNCTION        1.76          0.950        0.000
  YS02001910           JUNCTION        1.07          0.775        0.325
  YS02001915           JUNCTION        0.89          0.582        0.418
  YS02001918           JUNCTION        0.71          0.253        0.557
  YS02001619           JUNCTION        5.47          0.610        0.000
  YS02001629           JUNCTION        5.48          0.470        0.000
  YS02001641           JUNCTION        5.85          0.936        0.164
  YS02001644           JUNCTION        5.85          0.920        0.000
  YS02001652           JUNCTION        5.73          1.130        0.000
  YS02001655           JUNCTION        5.51          1.128        0.072
  YS02001920           JUNCTION        0.74          0.328        0.812
  YS02001658           JUNCTION        5.34          1.117        0.183
  YS02001661           JUNCTION        0.21          1.038        0.352
  YS02001622           JUNCTION        5.50          0.620        0.000
  YS02001633           JUNCTION        5.83          0.965        0.095
  YS02001649           JUNCTION        5.87          1.050        0.000
  YS02001757           JUNCTION        5.98          1.179        0.031
  YS02001895           JUNCTION        0.88          0.564        0.186
  YS02001625           JUNCTION        5.76          0.780        0.000
  YS02163301           JUNCTION        5.81          0.940        0.090
  YS02163601           JUNCTION        5.87          0.997        0.083
  YS02164001           JUNCTION        5.84          0.926        0.174
  YS02001647           JUNCTION        5.75          0.805        0.095
  YS02006553           JUNCTION        1.88          0.965        0.225
  YS02006561           JUNCTION        0.77          0.280        0.870
  YS02006556           JUNCTION        1.31          0.882        0.468
  YS02006558           JUNCTION        1.26          0.862        0.538
  YS02001783           JUNCTION        1.06          0.666        0.934
  YS02001784           JUNCTION        1.04          0.659        0.831
  YS02001786           JUNCTION        0.98          0.770        0.660
  YS02001788           JUNCTION        0.93          0.724        0.756
  YS02001790           JUNCTION        1.92          1.157        0.000
  YS02001791           JUNCTION        2.03          1.373        0.547
  YS02001793           JUNCTION        2.33          1.694        0.906
  
  
  *********************
  Node Flooding Summary
  *********************
  
  Flooding refers to all water that overflows a node, whether it ponds or not.
  --------------------------------------------------------------------------
                                                             Total   Maximum
                                 Maximum   Time of Max       Flood    Ponded
                        Hours       Rate    Occurrence      Volume     Depth
  Node                 Flooded       LPS   days hr:min    10^6 ltr    Meters
  --------------------------------------------------------------------------
  WS02006248              0.01      8.31      0  06:42       0.000     0.000
  WS02006249              0.29    261.26      0  03:00       0.112     0.000
  WS02006256              3.54    810.44      0  03:02       6.123     0.000
  YS02001779              2.98    536.13      0  03:01       1.975     0.000
  YS02001890              0.01      0.88      0  02:58       0.000     0.000
  YS02001907              0.58    392.70      0  03:01       0.443     0.000
  YS02001619              0.01     23.00      0  02:27       0.000     0.000
  YS02001629              0.01     29.56      0  02:27       0.000     0.000
  YS02001644              4.87   1312.18      0  03:01       8.894     0.000
  YS02001652              0.01     60.33      0  02:19       0.000     0.000
  YS02001649              0.04     38.49      0  02:39       0.001     0.000
  YS02001625              1.20    237.62      0  03:01       0.466     0.000
  YS02001790              0.01    179.55      0  04:31       0.000     0.000
  JK-storage              0.94    819.00      0  02:39       1.042     0.000
  XR-storage              3.10    464.68      0  03:01       1.932     0.000
  
  
  **********************
  Storage Volume Summary
  **********************
  
  --------------------------------------------------------------------------------------------------
                         Average     Avg  Evap Exfil       Maximum     Max    Time of Max    Maximum
                          Volume    Pcnt  Pcnt  Pcnt        Volume    Pcnt     Occurrence    Outflow
  Storage Unit           1000 m3    Full  Loss  Loss       1000 m3    Full    days hr:min        LPS
  --------------------------------------------------------------------------------------------------
  JK-storage               0.154      53     0     0         0.291     100       0  02:01     983.00
  CC-storage               3.250      21     0     0         3.935      25       0  03:14     400.00
  XR-storage               0.793      86     0     0         0.926     100       0  02:52     380.00
  
  
  ***********************
  Outfall Loading Summary
  ***********************
  
  ---------------------------------------------------------------------------------------------------------------------------------
                         Flow       Avg       Max       Total         Total         Total         Total         Total         Total
                         Freq      Flow      Flow      Volume           COD            SS            TN            TP         NH4-N
  Outfall Node           Pcnt       LPS       LPS    10^6 ltr            kg            kg            kg            kg            kg
  ---------------------------------------------------------------------------------------------------------------------------------
  WSC                  100.00    734.21   1226.34      18.637      2234.772      3810.744       149.041        17.664        90.524
  ---------------------------------------------------------------------------------------------------------------------------------
  System               100.00    734.21   1226.34      18.637      2234.772      3810.744       149.041        17.664        90.524
  
  
  ********************
  Link Flow Summary
  ********************
  
  -----------------------------------------------------------------------------
                                 Maximum  Time of Max   Maximum    Max/    Max/
                                  |Flow|   Occurrence   |Veloc|    Full    Full
  Link                 Type          LPS  days hr:min     m/sec    Flow   Depth
  -----------------------------------------------------------------------------
  WS02003066WSF200     CONDUIT    830.10     0  03:05      2.94    0.14    0.30
  WS02006287WS02006284 CONDUIT    413.47     0  03:02      2.04    0.19    0.30
  WS02006284WS02006280 CONDUIT    413.62     0  03:02      2.28    0.17    0.28
  WS02006280WS02006229 CONDUIT    413.62     0  03:02      3.60    0.09    0.25
  WS02006229WS02006228 CONDUIT    817.33     0  03:02      1.63    2.71    1.00
  WS02006256WS02006235 CONDUIT    261.48     0  06:32      3.70    2.77    1.00
  WS02006253WS02006251 CONDUIT    109.72     0  03:08      0.60    0.33    1.00
  WS02006252WS02006251 CONDUIT    404.17     0  05:00      3.22    1.48    1.00
  WS02006251WS02006249 CONDUIT    486.28     0  03:00      1.26    1.40    1.00
  WS02006249WS02006248 CONDUIT    389.99     0  07:43      1.19    2.14    1.00
  WS02006248WS02006247 CONDUIT    385.65     0  07:43      1.16    0.84    1.00
  WS02006247WS02006245 CONDUIT    383.16     0  07:49      1.14    3.04    1.00
  WS02006245WS02006243 CONDUIT    382.83     0  07:49      1.17    1.13    1.00
  WS02006243WS02006242 CONDUIT    382.63     0  07:49      1.06    0.82    1.00
  WS02006242WS02006240 CONDUIT    382.77     0  07:49      1.00    1.52    1.00
  WS02006240WS02006239 CONDUIT    378.72     0  07:50      1.04    1.19    1.00
  WS02006239WS02006238 CONDUIT    377.61     0  07:50      0.98    1.21    1.00
  WS02006238WS02006235 CONDUIT    377.60     0  07:50      0.98    0.84    1.00
  WS02006235WS02006234 CONDUIT    521.11     0  05:02      1.35    5.50    1.00
  WS02006234WS02006232 CONDUIT    520.93     0  05:03      1.35    1.05    1.00
  WS02006232WS02006231 CONDUIT    521.14     0  05:02      1.35    1.09    1.00
  WS02006231WS02006230 CONDUIT    521.09     0  05:02      1.39    7.90    1.00
  WS02006230WS02006229 CONDUIT    531.24     0  05:00      1.38   11.82    1.00
  WS02006228WS02006109 CONDUIT    817.45     0  03:02      1.63    3.57    1.00
  WS02006116WS02004401 CONDUIT    831.40     0  03:03      1.06    1.15    1.00
  WS02006115WS02006116 CONDUIT    831.39     0  03:03      1.06    1.07    1.00
  WS02006113WS02006111 CONDUIT    818.00     0  03:03      2.60    0.98    0.81
  WS02006112WS02006115 CONDUIT    831.02     0  03:03      1.06    0.49    1.00
  WS02006111WS02006112 CONDUIT    818.65     0  03:03      1.75    0.39    0.90
  WS02006110WS02006113 CONDUIT    818.43     0  03:02      1.76    0.74    0.90
  WS02006109WS02006110 CONDUIT    818.46     0  03:02      1.63    1.57    1.00
  WS02004411WS02004412 CONDUIT    829.87     0  03:04      1.16    1.18    0.85
  WS02004401WS02004402 CONDUIT    832.02     0  03:03      1.06    1.00    1.00
  WS02004413WS02003067 CONDUIT    829.88     0  03:04      1.42    0.36    0.70
  WS02004412WS02004413 CONDUIT    829.86     0  03:04      1.10    0.56    0.91
  WS02004410WS02004411 CONDUIT    830.02     0  03:04      1.15    1.13    0.86
  WS02004409WS02004410 CONDUIT    830.36     0  03:03      1.15    1.07    0.87
  WS02004407WS02004409 CONDUIT    831.00     0  03:03      1.65    0.29    0.62
  WS02004406WS02004407 CONDUIT    831.18     0  03:03      1.45    0.37    0.69
  WS02004405WS02004406 CONDUIT    831.19     0  03:03      1.06    1.64    1.00
  WS02004404WS02004405 CONDUIT    832.94     0  03:03      1.06    8.16    1.00
  WS02004403WS02004404 CONDUIT    831.78     0  03:03      1.06    0.60    1.00
  WS02004402WS02004403 CONDUIT    831.42     0  03:03      1.06    1.19    1.00
  WS02004139WS02001211 CONDUIT    383.84     0  03:15      0.90    0.49    0.63
  WS02004138WS02004139 CONDUIT    394.13     0  00:00      3.62    0.08    0.46
  WS02003067WS02003066 CONDUIT    830.04     0  03:05      1.54    0.27    0.48
  WS02001213WS02003059 CONDUIT    402.82     0  03:15      0.89    0.66    0.84
  WS02001212WS02001213 CONDUIT    398.47     0  03:16      1.32    0.61    0.53
  WS02001211WS02001212 CONDUIT    394.84     0  03:16      0.78    0.30    0.69
  WS02003072WS02003073 CONDUIT   1224.32     0  03:07      1.90    2.64    0.55
  WS02003069WS02003072 CONDUIT   1224.18     0  03:07      1.77    0.59    0.59
  WS02003060WS02003069 CONDUIT   1223.93     0  03:06      1.99    0.48    0.54
  WS02003059WS02003060 CONDUIT    408.44     0  03:15      0.95    0.27    0.74
  HS02004901HS02004770 CONDUIT     20.53     0  03:01      0.07    0.08    0.42
  HS02004876HS02004881 CONDUIT     76.55     0  03:01      0.95    0.81    0.12
  HS02004870HS02004876 CONDUIT     61.90     0  03:01      0.65    0.04    0.14
  HS02004842HS02004848 CONDUIT     12.41     0  03:01      0.06    0.01    0.31
  HS02004837HS02004842 CONDUIT     12.98     0  03:02      0.42    0.01    0.32
  HS02004830HS02004837 CONDUIT     43.71     0  03:01      0.57    0.04    0.11
  HS02004824HS02004830 CONDUIT     43.66     0  03:01      0.59    0.06    0.11
  HS02004817HS02004824 CONDUIT     85.68     0  03:01      0.26    0.04    0.48
  HS02004770HS02004777 CONDUIT    104.13     0  03:01      0.35    0.19    0.43
  HS02004799HS02004480 CONDUIT    258.31     0  03:01      0.83    0.33    0.44
  HS02004792HS02004799 CONDUIT    237.05     0  03:01      0.95    0.15    0.36
  HS02004788HS02004792 CONDUIT    135.43     0  03:01      1.06    0.09    0.18
  HS02004785HS02004788 CONDUIT    103.22     0  03:02      0.71    0.78    0.21
  HS02004777HS02004785 CONDUIT    103.37     0  03:01      0.42    0.13    0.35
  HS02004480HS02004478 CONDUIT    302.29     0  03:01      1.26    1.27    0.34
  HS02004479HS02004480 CONDUIT     46.29     0  03:02      0.32    0.04    0.43
  HS02004862HS02004870 CONDUIT     47.43     0  03:01      0.66    0.05    0.10
  HS02004848HS02004852 CONDUIT     21.94     0  03:01      0.45    0.02    0.07
  HS02004856HS02004862 CONDUIT     32.47     0  03:01      0.48    0.03    0.10
  HS02004852HS02004856 CONDUIT     21.85     0  03:02      0.25    0.02    0.13
  HS02004802HS02004478 CONDUIT    111.52     0  03:02      0.45    0.10    0.36
  HS02004478WS02006287 CONDUIT    413.22     0  03:01      1.75    0.12    0.26
  HS02004817HS02004807 CONDUIT     86.14     0  03:01      0.19    0.05    0.63
  HS02004807HS02004802 CONDUIT    111.37     0  03:01      0.38    0.21    0.42
  YS02001759YS02001757 CONDUIT    572.96     0  02:38      0.73    0.41    1.00
  YS02001762YS02001759 CONDUIT    290.84     0  02:38      0.37    0.34    1.00
  YS02001765YS02001762 CONDUIT    290.44     0  02:38      0.37    0.27    1.00
  YS02001770YS02001767 CONDUIT    291.11     0  02:38      0.37    1.15    1.00
  YS02001774YS02001770 CONDUIT    535.12     0  03:01      0.68    0.34    1.00
  YS02001779YS02001774 CONDUIT    536.19     0  03:01      0.68    0.27    1.00
  YS02001649YS02001757 CONDUIT    829.51     0  02:35      1.06    0.50    1.00
  YS02001767YS02001765 CONDUIT    290.97     0  02:38      0.37    0.37    1.00
  YS02006561YS02001783 CONDUIT    982.45     0  02:59      2.15    0.51    1.00
  YS02001783YS02001784 CONDUIT    982.52     0  03:00      1.95    1.35    1.00
  YS02001784YS02001785 CONDUIT    983.51     0  03:00      1.96    2.29    1.00
  YS02001788YS02001790 CONDUIT    983.57     0  03:01      2.44    0.72    1.00
  YS02001790YS02001791 CONDUIT    983.78     0  03:01      2.91    1.07    1.00
  YS02001791YS02001793 CONDUIT    984.29     0  03:00      5.75    0.42    1.00
  YS02001910YS02001907 CONDUIT    448.61     0  03:00      0.57    0.25    1.00
  YS02001786YS02001788 CONDUIT    983.36     0  03:00      2.31    1.89    1.00
  YS02001915YS02001910 CONDUIT    448.89     0  03:00      0.59    0.22    1.00
  YS02001918YS02001915 CONDUIT    246.89     0  03:31      0.44    0.14    1.00
  YS02001923YS02001920 CONDUIT    200.41     0  02:46      0.72    0.09    1.00
  YS02001926YS02001923 CONDUIT    223.45     0  02:46      0.83    0.32    0.88
  YS02001929YS02001926 CONDUIT    169.11     0  02:46      0.89    0.08    0.78
  YS02001920YS02001918 CONDUIT    209.68     0  03:30      0.70    0.20    1.00
  YS02001629YS02163301 CONDUIT    205.51     0  02:26      0.26    0.25    1.00
  YS02001619YS02001622 CONDUIT    291.29     0  03:01      0.61    0.43    1.00
  YS02001622YS02001625 CONDUIT    290.80     0  03:01      0.37    0.16    1.00
  YS02001625YS02001629 CONDUIT    217.09     0  02:17      0.28    0.10    1.00
  YS02163301YS02001633 CONDUIT    205.47     0  02:26      0.26    0.19    1.00
  YS02163601YS02164001 CONDUIT    397.67     0  02:34      0.51    0.35    1.00
  YS02164001YS02001641 CONDUIT    399.20     0  02:34      0.51    0.55    1.00
  YS02001641YS02001644 CONDUIT    400.06     0  02:34      0.51    1.29    1.00
  YS02001647YS02001649 CONDUIT    630.07     0  03:15      0.80    0.33    1.00
  YS02006553YS02006556 CONDUIT    703.53     0  03:31      0.90    0.60    1.00
  YS02006556YS02006558 CONDUIT    703.36     0  03:31      0.90    0.56    1.00
  YSB6556YSB1171       CONDUIT     25.76     0  03:03      0.09    0.03    0.70
  YS02001907YS02006553 CONDUIT    702.75     0  03:31      0.78    0.83    1.00
  YS02006558YS02006561 CONDUIT    982.45     0  03:00      3.47    2.17    1.00
  YS02001633YS02163601 CONDUIT    396.80     0  02:34      0.51    0.42    1.00
  YS02001644YS02001647 CONDUIT    630.26     0  03:15      0.80    0.37    1.00
  YS02001745YS02001748 CONDUIT    577.04     0  02:26      1.47    0.22    0.96
  YS02001748YS02001751 CONDUIT    341.95     0  03:01      1.06    0.17    1.00
  YS02001751YS02001754 CONDUIT    342.89     0  03:01      0.92    0.17    1.00
  YS02001754YS02001757 CONDUIT    342.44     0  03:01      0.44    0.14    1.00
  YS02001882YS02001884 CONDUIT     33.40     0  02:35      0.13    0.04    1.00
  YS02001884YS02001887 CONDUIT     69.04     0  02:35      0.09    0.09    1.00
  YS02001890YS02001895 CONDUIT    495.03     0  03:00      0.63    0.23    1.00
  YS02001895YS02001898 CONDUIT    495.05     0  03:01      0.63    0.86    1.00
  YS02001898YS02001901 CONDUIT    495.08     0  03:01      0.63    0.32    1.00
  YS02001901YS02001904 CONDUIT    495.60     0  03:01      0.63    0.77    1.00
  YS02001904YS02001907 CONDUIT    495.10     0  03:01      0.63    0.17    1.00
  YS02001887YS02001890 CONDUIT    494.57     0  03:01      0.63    0.85    1.00
  YS02001652YS02001649 CONDUIT    382.77     0  03:01      0.63    0.19    1.00
  YS02001655YS02001652 CONDUIT    381.69     0  03:01      0.98    0.19    1.00
  YS02001658YS02001655 CONDUIT    387.30     0  02:18      1.22    0.16    1.00
  YS02001661YS02001658 CONDUIT    602.65     0  02:23      1.55    0.24    1.00
  YS02001664YS02001661 CONDUIT    629.16     0  02:38      1.43    0.20    0.76
  YSB1154YSB6556       CONDUIT     25.82     0  03:01      0.17    0.05    0.59
  YSB1174YSB1171       CONDUIT     20.15     0  03:01      0.07    0.03    0.70
  YSB1171HS02004479    CONDUIT     44.91     0  03:02      0.54    0.03    0.55
  HS02004881HS02006253 CONDUIT    104.64     0  02:56      2.14    0.02    0.53
  YS02001793JiankangQianchi CONDUIT    984.57     0  03:00     16.67    0.08    1.00
  YS02001757CaochengTiaoxuchi CONDUIT   1576.70     0  02:35      2.02    0.69    1.00
  WSF200WS02003060     CONDUIT    830.30     0  03:05      1.85    0.18    0.42
  1                    CONDUIT   1226.34     0  03:08      3.51    0.43    0.46
  CC-Pump-1            PUMP       200.00     0  03:40              1.00
  CC-Pump-2            PUMP       200.00     0  07:40              1.00
  JK-Pump-1            PUMP       300.00     0  02:10              1.00
  JK-Pump-2            PUMP       683.00     0  02:10              1.00
  XR-Pump-1            PUMP        95.00     0  00:00              1.00
  XR-Pump-2            PUMP        95.00     0  00:00              1.00
  XR-Pump-3            PUMP        95.00     0  00:00              1.00
  XR-Pump-4            PUMP        95.00     0  00:00              1.00
  
  
  ***************************
  Flow Classification Summary
  ***************************
  
  -------------------------------------------------------------------------------------
                      Adjusted    ---------- Fraction of Time in Flow Class ---------- 
                       /Actual         Up    Down  Sub   Sup   Up    Down  Norm  Inlet 
  Conduit               Length    Dry  Dry   Dry   Crit  Crit  Crit  Crit  Ltd   Ctrl  
  -------------------------------------------------------------------------------------
  WS02003066WSF200        1.00   0.01  0.06  0.00  0.00  0.93  0.00  0.00  0.54  0.00
  WS02006287WS02006284    1.00   0.03  0.01  0.00  0.60  0.36  0.00  0.00  0.62  0.00
  WS02006284WS02006280    1.00   0.03  0.00  0.00  0.00  0.00  0.00  0.97  0.00  0.00
  WS02006280WS02006229    1.00   0.03  0.00  0.00  0.00  0.02  0.00  0.95  0.02  0.00
  WS02006229WS02006228    1.00   0.00  0.00  0.00  1.00  0.00  0.00  0.00  0.00  0.00
  WS02006256WS02006235    1.00   0.05  0.00  0.00  0.95  0.00  0.00  0.00  0.00  0.00
  WS02006253WS02006251    1.00   0.01  0.02  0.00  0.97  0.00  0.01  0.00  0.00  0.00
  WS02006252WS02006251    1.00   0.18  0.00  0.00  0.05  0.00  0.77  0.00  0.00  0.00
  WS02006251WS02006249    1.00   0.00  0.00  0.00  1.00  0.00  0.00  0.00  0.26  0.00
  WS02006249WS02006248    1.00   0.00  0.00  0.00  0.89  0.00  0.11  0.00  0.00  0.00
  WS02006248WS02006247    1.00   0.01  0.00  0.00  0.98  0.00  0.00  0.01  0.13  0.00
  WS02006247WS02006245    1.00   0.01  0.00  0.00  0.96  0.00  0.00  0.03  0.00  0.00
  WS02006245WS02006243    1.00   0.01  0.00  0.00  0.93  0.00  0.00  0.06  0.01  0.00
  WS02006243WS02006242    1.00   0.01  0.00  0.00  0.95  0.00  0.00  0.04  0.08  0.00
  WS02006242WS02006240    1.00   0.01  0.03  0.00  0.95  0.00  0.01  0.00  0.00  0.00
  WS02006240WS02006239    1.00   0.04  0.00  0.00  0.94  0.00  0.00  0.01  0.01  0.00
  WS02006239WS02006238    1.00   0.04  0.00  0.00  0.95  0.00  0.00  0.01  0.00  0.00
  WS02006238WS02006235    1.00   0.04  0.01  0.00  0.95  0.00  0.00  0.00  0.00  0.00
  WS02006235WS02006234    1.00   0.05  0.00  0.00  0.94  0.00  0.01  0.00  0.00  0.00
  WS02006234WS02006232    1.00   0.05  0.00  0.00  0.95  0.00  0.00  0.00  0.00  0.00
  WS02006232WS02006231    1.00   0.05  0.00  0.00  0.95  0.00  0.00  0.00  0.00  0.00
  WS02006231WS02006230    1.00   0.05  0.00  0.00  0.63  0.00  0.32  0.00  0.00  0.00
  WS02006230WS02006229    1.00   0.00  0.00  0.00  0.99  0.00  0.00  0.01  0.00  0.00
  WS02006228WS02006109    1.00   0.00  0.00  0.00  1.00  0.00  0.00  0.00  0.00  0.00
  WS02006116WS02004401    1.00   0.03  0.00  0.00  0.97  0.00  0.00  0.00  0.00  0.00
  WS02006115WS02006116    1.00   0.03  0.00  0.00  0.95  0.00  0.00  0.03  0.00  0.00
  WS02006113WS02006111    1.00   0.02  0.00  0.00  0.03  0.96  0.00  0.00  0.17  0.00
  WS02006112WS02006115    1.00   0.02  0.01  0.00  0.97  0.00  0.00  0.00  0.00  0.00
  WS02006111WS02006112    1.00   0.02  0.00  0.00  0.98  0.00  0.00  0.00  0.87  0.00
  WS02006110WS02006113    1.00   0.00  0.01  0.00  0.98  0.00  0.00  0.00  0.00  0.00
  WS02006109WS02006110    1.00   0.00  0.00  0.00  0.99  0.00  0.00  0.00  0.00  0.00
  WS02004411WS02004412    1.00   0.06  0.00  0.00  0.94  0.00  0.00  0.00  0.00  0.00
  WS02004401WS02004402    1.00   0.03  0.00  0.00  0.97  0.00  0.00  0.00  0.04  0.00
  WS02004413WS02003067    1.00   0.06  0.01  0.00  0.00  0.00  0.93  0.00  0.00  0.00
  WS02004412WS02004413    1.00   0.06  0.00  0.00  0.94  0.00  0.00  0.00  0.00  0.00
  WS02004410WS02004411    1.00   0.06  0.00  0.00  0.94  0.00  0.00  0.00  0.00  0.00
  WS02004409WS02004410    1.00   0.06  0.00  0.00  0.94  0.00  0.00  0.00  0.00  0.00
  WS02004407WS02004409    1.00   0.06  0.00  0.00  0.93  0.01  0.00  0.00  0.79  0.00
  WS02004406WS02004407    1.00   0.00  0.06  0.00  0.94  0.00  0.00  0.00  0.00  0.00
  WS02004405WS02004406    1.00   0.00  0.00  0.00  1.00  0.00  0.00  0.00  0.04  0.00
  WS02004404WS02004405    1.00   0.00  0.00  0.00  1.00  0.00  0.00  0.00  0.00  0.00
  WS02004403WS02004404    1.00   0.00  0.03  0.00  0.97  0.00  0.00  0.00  0.04  0.00
  WS02004402WS02004403    1.00   0.03  0.00  0.00  0.97  0.00  0.00  0.00  0.00  0.00
  WS02004139WS02001211    1.00   0.00  0.00  0.00  1.00  0.00  0.00  0.00  0.00  0.00
  WS02004138WS02004139    1.00   0.00  0.00  0.00  1.00  0.00  0.00  0.00  1.00  0.00
  WS02003067WS02003066    1.00   0.07  0.00  0.00  0.93  0.00  0.00  0.00  0.00  0.00
  WS02001213WS02003059    1.00   0.00  0.00  0.00  1.00  0.00  0.00  0.00  0.00  0.00
  WS02001212WS02001213    1.00   0.00  0.00  0.00  0.92  0.00  0.08  0.00  0.00  0.00
  WS02001211WS02001212    1.00   0.00  0.00  0.00  1.00  0.00  0.00  0.00  0.00  0.00
  WS02003072WS02003073    1.00   0.00  0.00  0.00  0.00  0.00  0.00  1.00  0.00  0.00
  WS02003069WS02003072    1.00   0.00  0.00  0.00  1.00  0.00  0.00  0.00  0.10  0.00
  WS02003060WS02003069    1.00   0.00  0.00  0.00  0.99  0.01  0.00  0.00  0.07  0.00
  WS02003059WS02003060    1.00   0.00  0.00  0.00  1.00  0.00  0.00  0.00  0.00  0.00
  HS02004901HS02004770    1.00   0.03  0.00  0.00  0.97  0.00  0.00  0.00  0.00  0.00
  HS02004876HS02004881    1.00   0.00  0.00  0.00  0.93  0.07  0.00  0.00  0.00  0.00
  HS02004870HS02004876    1.00   0.00  0.00  0.00  1.00  0.00  0.00  0.00  0.95  0.00
  HS02004842HS02004848    1.00   0.00  0.03  0.00  0.97  0.00  0.00  0.00  0.55  0.00
  HS02004837HS02004842    1.00   0.00  0.00  0.00  1.00  0.00  0.00  0.00  0.11  0.00
  HS02004830HS02004837    1.00   0.00  0.00  0.00  1.00  0.00  0.00  0.00  0.99  0.00
  HS02004824HS02004830    1.00   0.00  0.00  0.00  1.00  0.00  0.00  0.00  0.00  0.00
  HS02004817HS02004824    1.00   0.00  0.00  0.00  1.00  0.00  0.00  0.00  1.00  0.00
  HS02004770HS02004777    1.00   0.00  0.03  0.00  0.97  0.00  0.00  0.00  0.02  0.00
  HS02004799HS02004480    1.00   0.00  0.01  0.00  0.96  0.00  0.03  0.00  0.00  0.00
  HS02004792HS02004799    1.00   0.00  0.00  0.00  1.00  0.00  0.00  0.00  0.98  0.00
  HS02004788HS02004792    1.00   0.00  0.00  0.00  1.00  0.00  0.00  0.00  0.98  0.00
  HS02004785HS02004788    1.00   0.00  0.00  0.00  1.00  0.00  0.00  0.00  0.00  0.00
  HS02004777HS02004785    1.00   0.00  0.00  0.00  1.00  0.00  0.00  0.00  0.12  0.00
  HS02004480HS02004478    1.00   0.03  0.00  0.00  0.69  0.00  0.00  0.27  0.00  0.00
  HS02004479HS02004480    1.00   0.01  0.00  0.00  0.99  0.00  0.00  0.00  0.11  0.00
  HS02004862HS02004870    1.00   0.00  0.00  0.00  1.00  0.00  0.00  0.00  0.03  0.00
  HS02004848HS02004852    1.00   0.03  0.00  0.00  0.97  0.00  0.00  0.00  0.62  0.00
  HS02004856HS02004862    1.00   0.00  0.04  0.00  0.96  0.00  0.00  0.00  0.83  0.00
  HS02004852HS02004856    1.00   0.03  0.00  0.00  0.97  0.00  0.00  0.00  0.85  0.00
  HS02004802HS02004478    1.00   0.03  0.00  0.00  0.97  0.00  0.00  0.00  0.02  0.00
  HS02004478WS02006287    1.00   0.04  0.00  0.00  0.76  0.20  0.00  0.00  0.64  0.00
  HS02004817HS02004807    1.00   0.00  0.03  0.00  0.97  0.00  0.00  0.00  0.01  0.00
  HS02004807HS02004802    1.00   0.03  0.00  0.00  0.96  0.00  0.00  0.00  0.00  0.00
  YS02001759YS02001757    1.00   0.00  0.00  0.00  1.00  0.00  0.00  0.00  0.16  0.00
  YS02001762YS02001759    1.00   0.00  0.00  0.00  1.00  0.00  0.00  0.00  0.03  0.00
  YS02001765YS02001762    1.00   0.00  0.00  0.00  1.00  0.00  0.00  0.00  0.13  0.00
  YS02001770YS02001767    1.00   0.00  0.00  0.00  1.00  0.00  0.00  0.00  0.00  0.00
  YS02001774YS02001770    1.00   0.00  0.03  0.00  0.97  0.00  0.00  0.00  0.02  0.00
  YS02001779YS02001774    1.00   0.00  0.00  0.00  1.00  0.00  0.00  0.00  0.18  0.00
  YS02001649YS02001757    1.00   0.00  0.00  0.00  1.00  0.00  0.00  0.00  0.16  0.00
  YS02001767YS02001765    1.00   0.00  0.00  0.00  1.00  0.00  0.00  0.00  0.00  0.00
  YS02006561YS02001783    1.00   0.05  0.00  0.00  0.34  0.61  0.00  0.00  0.49  0.00
  YS02001783YS02001784    1.00   0.00  0.05  0.00  0.95  0.00  0.00  0.00  0.00  0.00
  YS02001784YS02001785    1.00   0.00  0.00  0.00  1.00  0.00  0.00  0.00  0.17  0.00
  YS02001788YS02001790    1.00   0.00  0.00  0.00  0.38  0.62  0.00  0.00  0.38  0.00
  YS02001790YS02001791    1.00   0.00  0.00  0.00  0.35  0.65  0.00  0.00  0.46  0.00
  YS02001791YS02001793    1.00   0.00  0.00  0.00  0.39  0.61  0.00  0.00  0.03  0.00
  YS02001910YS02001907    1.00   0.00  0.00  0.00  0.99  0.00  0.00  0.01  0.12  0.00
  YS02001786YS02001788    1.00   0.00  0.00  0.00  0.35  0.65  0.00  0.00  0.00  0.00
  YS02001915YS02001910    1.00   0.00  0.00  0.00  0.99  0.01  0.00  0.00  0.15  0.00
  YS02001918YS02001915    1.00   0.00  0.00  0.00  0.99  0.00  0.00  0.00  0.55  0.00
  YS02001923YS02001920    1.00   0.00  0.00  0.00  1.00  0.00  0.00  0.00  0.84  0.00
  YS02001926YS02001923    1.00   0.00  0.02  0.00  0.13  0.00  0.85  0.00  0.00  0.00
  YS02001929YS02001926    1.00   0.00  0.03  0.00  0.97  0.00  0.00  0.00  0.76  0.00
  YS02001920YS02001918    1.00   0.00  0.00  0.00  1.00  0.00  0.00  0.00  0.00  0.00
  YS02001629YS02163301    1.00   0.04  0.00  0.00  0.96  0.00  0.00  0.00  0.00  0.00
  YS02001619YS02001622    1.00   0.03  0.00  0.00  0.97  0.00  0.00  0.00  0.00  0.00
  YS02001622YS02001625    1.00   0.03  0.00  0.00  0.97  0.00  0.00  0.00  0.04  0.00
  YS02001625YS02001629    1.00   0.03  0.01  0.00  0.93  0.00  0.02  0.00  0.00  0.00
  YS02163301YS02001633    1.00   0.00  0.04  0.00  0.96  0.00  0.00  0.00  0.00  0.00
  YS02163601YS02164001    1.00   0.00  0.02  0.00  0.98  0.00  0.00  0.00  0.00  0.00
  YS02164001YS02001641    1.00   0.00  0.02  0.00  0.98  0.00  0.00  0.00  0.06  0.00
  YS02001641YS02001644    1.00   0.00  0.00  0.00  1.00  0.00  0.00  0.00  0.00  0.00
  YS02001647YS02001649    1.00   0.00  0.04  0.00  0.96  0.00  0.00  0.00  0.01  0.00
  YS02006553YS02006556    1.00   0.00  0.00  0.00  1.00  0.00  0.00  0.00  0.03  0.00
  YS02006556YS02006558    1.00   0.00  0.00  0.00  1.00  0.00  0.00  0.00  0.00  0.00
  YSB6556YSB1171          1.00   0.01  0.02  0.00  0.97  0.00  0.00  0.00  0.00  0.00
  YS02001907YS02006553    1.00   0.00  0.01  0.00  0.99  0.00  0.00  0.00  0.00  0.00
  YS02006558YS02006561    1.00   0.05  0.00  0.00  0.14  0.82  0.00  0.00  0.49  0.00
  YS02001633YS02163601    1.00   0.00  0.00  0.00  1.00  0.00  0.00  0.00  0.15  0.00
  YS02001644YS02001647    1.00   0.00  0.04  0.00  0.96  0.00  0.00  0.00  0.00  0.00
  YS02001745YS02001748    1.00   0.00  0.00  0.00  0.91  0.01  0.00  0.08  0.04  0.00
  YS02001748YS02001751    1.00   0.00  0.00  0.00  0.97  0.03  0.00  0.00  0.15  0.00
  YS02001751YS02001754    1.00   0.00  0.00  0.00  0.95  0.00  0.00  0.05  0.02  0.00
  YS02001754YS02001757    1.00   0.00  0.00  0.00  1.00  0.00  0.00  0.00  0.18  0.00
  YS02001882YS02001884    1.00   0.04  0.00  0.00  0.96  0.00  0.00  0.00  0.00  0.00
  YS02001884YS02001887    1.00   0.02  0.01  0.00  0.97  0.00  0.00  0.00  0.00  0.00
  YS02001890YS02001895    1.00   0.00  0.04  0.00  0.96  0.00  0.00  0.00  0.00  0.00
  YS02001895YS02001898    1.00   0.04  0.00  0.00  0.95  0.00  0.01  0.00  0.00  0.00
  YS02001898YS02001901    1.00   0.04  0.00  0.00  0.96  0.00  0.00  0.00  0.01  0.00
  YS02001901YS02001904    1.00   0.04  0.00  0.00  0.96  0.00  0.00  0.00  0.00  0.00
  YS02001904YS02001907    1.00   0.00  0.04  0.00  0.96  0.00  0.00  0.00  0.00  0.00
  YS02001887YS02001890    1.00   0.00  0.00  0.00  0.99  0.00  0.01  0.00  0.00  0.00
  YS02001652YS02001649    1.00   0.00  0.00  0.00  1.00  0.00  0.00  0.00  0.16  0.00
  YS02001655YS02001652    1.00   0.00  0.00  0.00  0.95  0.00  0.00  0.05  0.02  0.00
  YS02001658YS02001655    1.00   0.00  0.04  0.00  0.94  0.03  0.00  0.00  0.08  0.00
  YS02001661YS02001658    1.00   0.04  0.00  0.00  0.91  0.05  0.00  0.00  0.08  0.00
  YS02001664YS02001661    1.00   0.03  0.00  0.00  0.92  0.05  0.00  0.00  0.19  0.00
  YSB1154YSB6556          1.00   0.03  0.00  0.00  0.97  0.00  0.00  0.00  0.01  0.00
  YSB1174YSB1171          1.00   0.01  0.01  0.00  0.98  0.00  0.00  0.00  0.00  0.00
  YSB1171HS02004479       1.00   0.01  0.00  0.00  0.99  0.00  0.00  0.00  0.10  0.00
  HS02004881HS02006253    1.00   0.01  0.00  0.00  0.53  0.02  0.00  0.44  0.36  0.00
  YS02001793JiankangQianchi    1.00   0.00  0.00  0.00  0.73  0.27  0.00  0.00  0.44  0.00
  YS02001757CaochengTiaoxuchi    1.00   0.00  0.06  0.00  0.94  0.00  0.00  0.00  0.00  0.00
  WSF200WS02003060        1.00   0.00  0.01  0.00  0.97  0.02  0.00  0.00  0.47  0.00
  1                       1.00   0.00  0.00  0.00  0.00  1.00  0.00  0.00  0.52  0.00
  
  
  *************************
  Conduit Surcharge Summary
  *************************
  
  ----------------------------------------------------------------------------
                                                           Hours        Hours 
                         --------- Hours Full --------   Above Full   Capacity
  Conduit                Both Ends  Upstream  Dnstream   Normal Flow   Limited
  ----------------------------------------------------------------------------
  WS02006229WS02006228        2.77      2.88      2.77      4.37         2.77
  WS02006256WS02006235        5.76      5.76      6.32      4.23         0.01
  WS02006253WS02006251        0.59      0.59      0.67      0.01         0.01
  WS02006252WS02006251        0.70      0.70      1.24      1.02         0.01
  WS02006251WS02006249        0.61      0.62      0.67      0.50         0.21
  WS02006249WS02006248        0.60      0.60      0.67      1.79         0.01
  WS02006248WS02006247        0.66      0.66      0.77      0.01         0.01
  WS02006247WS02006245        0.75      0.81      0.75      2.69         0.71
  WS02006245WS02006243        0.77      0.78      0.92      0.24         0.06
  WS02006243WS02006242        0.97      0.97      1.43      0.01         0.01
  WS02006242WS02006240        1.30      1.30      1.58      0.81         0.01
  WS02006240WS02006239        1.33      1.34      1.44      0.39         0.11
  WS02006239WS02006238        1.61      1.64      1.95      0.43         0.14
  WS02006238WS02006235        1.93      1.93      2.26      0.01         0.01
  WS02006235WS02006234        1.51      1.51      1.83      5.60         0.01
  WS02006234WS02006232        1.67      1.67      2.57      0.23         0.23
  WS02006232WS02006231        1.00      1.00      2.57      0.30         0.01
  WS02006231WS02006230        0.60      0.60      1.07      5.87         0.01
  WS02006230WS02006229        3.63      4.08      3.63      6.23         3.63
  WS02006228WS02006109        2.82      3.24      2.82      4.94         2.82
  WS02006116WS02004401        0.24      0.24      0.24      0.22         0.21
[...]
  YS02001765YS02001762        5.84      5.84      5.87      0.01         0.01
  YS02001770YS02001767        5.81      5.81      5.81      0.19         0.71
  YS02001774YS02001770        5.80      5.80      5.86      0.01         0.01
  YS02001779YS02001774        5.68      5.68      5.86      0.01         0.01
  YS02001649YS02001757        5.87      5.87      5.98      0.01         0.01
  YS02001767YS02001765        5.81      5.81      5.84      0.01         0.01
  YS02006561YS02001783        0.77      0.77      1.06      0.01         0.01
  YS02001783YS02001784        1.03      1.06      1.03      1.38         1.02
  YS02001784YS02001785        0.98      1.03      0.98      2.40         0.98
  YS02001788YS02001790        0.93      0.93      1.92      0.01         0.01
  YS02001790YS02001791        1.91      1.92      2.03      0.87         0.85
  YS02001791YS02001793        2.03      2.03      2.44      0.01         0.01
  YS02001910YS02001907        1.07      1.07      1.76      0.01         0.01
  YS02001786YS02001788        0.92      0.98      0.93      2.00         0.92
  YS02001915YS02001910        0.89      0.89      1.07      0.01         0.01
  YS02001918YS02001915        0.71      0.71      0.89      0.01         0.01
  YS02001923YS02001920        0.54      0.54      0.74      0.01         0.01
  YS02001920YS02001918        0.71      0.71      0.74      0.01         0.01
  YS02001629YS02163301        5.80      5.80      5.81      0.01         0.01
  YS02001619YS02001622        5.47      5.47      5.50      0.01         0.01
  YS02001622YS02001625        5.50      5.50      5.76      0.01         0.01
  YS02001625YS02001629        5.48      5.48      5.76      0.01         0.01
  YS02163301YS02001633        5.81      5.81      5.84      0.01         0.01
  YS02163601YS02164001        5.84      5.84      5.87      0.01         0.01
  YS02164001YS02001641        5.84      5.84      5.85      0.01         0.03
  YS02001641YS02001644        5.85      5.85      5.85      1.52         1.54
  YS02001647YS02001649        5.75      5.75      5.87      0.01         0.01
  YS02006553YS02006556        1.31      1.31      1.88      0.01         0.01
  YS02006556YS02006558        1.51      1.51      1.96      0.01         0.01
  YS02001907YS02006553        2.41      2.41      2.62      0.01         0.01
  YS02006558YS02006561        0.91      1.26      0.91      2.23         0.91
  YS02001633YS02163601        5.83      5.83      5.87      0.01         0.01
  YS02001644YS02001647        5.75      5.75      5.85      0.01         0.01
  YS02001745YS02001748        0.01      0.01      5.31      0.01         0.01
  YS02001748YS02001751        5.35      5.35      5.49      0.01         0.01
  YS02001751YS02001754        5.49      5.49      5.70      0.01         0.01
  YS02001754YS02001757        5.74      5.74      5.98      0.01         0.01
  YS02001882YS02001884        0.90      0.90      0.93      0.01         0.01
  YS02001884YS02001887        0.97      0.97      1.00      0.01         0.01
  YS02001890YS02001895        0.88      0.88      1.07      0.01         0.01
  YS02001895YS02001898        0.87      0.87      0.88      0.01         0.01
  YS02001898YS02001901        0.89      0.89      0.97      0.01         0.01
  YS02001901YS02001904        0.94      0.94      0.97      0.01         0.01
  YS02001904YS02001907        0.94      0.94      1.90      0.01         0.01
  YS02001887YS02001890        1.02      1.02      1.04      0.01         0.01
  YS02001652YS02001649        5.76      5.76      5.87      0.01         0.01
  YS02001655YS02001652        5.51      5.51      5.73      0.01         0.01
  YS02001658YS02001655        5.33      5.33      5.51      0.01         0.01
  YS02001661YS02001658        0.18      0.18      5.33      0.01         0.01
  YS02001664YS02001661        0.01      0.01      1.05      0.01         0.01
  HS02004881HS02006253        0.01      0.01      0.33      0.01         0.01
  YS02001793JiankangQianchi        2.33      2.33      5.75      0.01         0.01
  YS02001757CaochengTiaoxuchi        5.21      5.21      5.98      0.01         0.01
  
  
  ***************
  Pumping Summary
  ***************
  
  ---------------------------------------------------------------------------------------------------------
                                                  Min       Avg       Max     Total     Power    % Time Off
                        Percent   Number of      Flow      Flow      Flow    Volume     Usage    Pump Curve
  Pump                 Utilized   Start-Ups       LPS       LPS       LPS  10^6 ltr     Kw-hr    Low   High
  ---------------------------------------------------------------------------------------------------------
  CC-Pump-1               53.18           4      0.00    134.36    200.00     1.860      1.53    0.0    0.0
  CC-Pump-2               25.53           6      0.00     98.27    200.00     0.780      0.90    0.0    0.0
  JK-Pump-1               57.44           5      0.00    228.11    300.00     3.510     52.34    0.0    0.0
  JK-Pump-2               51.07           4      0.00    428.59    683.00     6.048     84.45    0.0   95.4
  XR-Pump-1              100.00           1      0.00     95.00     95.00     2.679     27.15    0.0    0.0
  XR-Pump-2               95.74           3      0.00     92.36     95.00     2.394     21.17    0.0    0.0
  XR-Pump-3               95.74           3      0.00     92.36     95.00     2.394     21.17    0.0    0.0
  XR-Pump-4               95.74           3      0.00     92.36     95.00     2.394     21.17    0.0    0.0
  
  
  ***************************
  Link Pollutant Load Summary
  ***************************
  
  ------------------------------------------------------------------------------------------
                                 COD            SS            TN            TP         NH4-N
  Link                            kg            kg            kg            kg            kg
  ------------------------------------------------------------------------------------------
  WS02003066WSF200           701.945      1293.808        19.234         1.723        10.232
  WS02006287WS02006284       268.055       498.196         9.347         0.943         5.214
  WS02006284WS02006280       268.538       498.971         9.394         0.949         5.244
  WS02006280WS02006229       268.501       498.902         9.392         0.949         5.243
  WS02006229WS02006228       706.798      1302.883        18.949         1.673        10.025
  WS02006256WS02006235       200.062       366.452         4.493         0.354         2.285
  WS02006253WS02006251        52.690       101.513         1.161         0.086         0.574
  WS02006252WS02006251       221.823       401.842         4.682         0.341         2.309
  WS02006251WS02006249       264.938       486.114         5.657         0.415         2.795
  WS02006249WS02006248       252.895       463.858         5.398         0.396         2.667
  WS02006248WS02006247       252.458       463.118         5.389         0.395         2.662
  WS02006247WS02006245       251.523       461.442         5.368         0.393         2.652
  WS02006245WS02006243       250.219       459.184         5.335         0.391         2.634
  WS02006243WS02006242       249.653       458.147         5.325         0.390         2.630
  WS02006242WS02006240       249.285       457.425         5.320         0.390         2.628
  WS02006240WS02006239       250.124       458.870         5.353         0.393         2.647
  WS02006239WS02006238       252.172       462.261         5.425         0.400         2.687
  WS02006238WS02006235       253.612       464.591         5.472         0.405         2.713
  WS02006235WS02006234       444.502       815.051         9.701         0.736         4.856
  WS02006234WS02006232       443.135       812.578         9.675         0.734         4.844
  WS02006232WS02006231       442.173       810.853         9.653         0.732         4.832
  WS02006231WS02006230       441.086       808.919         9.628         0.730         4.820
  WS02006230WS02006229       439.435       806.002         9.590         0.727         4.801
  WS02006228WS02006109       705.506      1300.558        18.918         1.671        10.010
  WS02006116WS02004401       713.537      1314.307        19.608         1.759        10.439
  WS02006115WS02006116       715.050      1317.012        19.648         1.762        10.460
  WS02006113WS02006111       709.932      1306.961        19.603         1.760        10.448
  WS02006112WS02006115       716.994      1320.429        19.716         1.769        10.498
  WS02006111WS02006112       709.215      1305.661        19.591         1.760        10.442
  WS02006110WS02006113       710.912      1308.683        19.636         1.763        10.466
  WS02006109WS02006110       712.879      1312.109        19.713         1.771        10.510
  WS02004411WS02004412       704.584      1298.388        19.350         1.736        10.300
  WS02004401WS02004402       711.695      1311.069        19.543         1.752        10.402
  WS02004413WS02003067       702.296      1294.448        19.243         1.724        10.237
  WS02004412WS02004413       703.893      1297.168        19.326         1.733        10.286
  WS02004410WS02004411       705.109      1299.322        19.367         1.737        10.309
  WS02004409WS02004410       705.783      1300.504        19.392         1.740        10.324
  WS02004407WS02004409       706.242      1301.327        19.405         1.741        10.330
  WS02004406WS02004407       706.257      1301.378        19.401         1.740        10.328
  WS02004405WS02004406       708.508      1305.208        19.527         1.755        10.403
  WS02004404WS02004405       709.182      1306.488        19.518         1.752        10.395
  WS02004403WS02004404       708.781      1305.943        19.439         1.742        10.344
  WS02004402WS02004403       710.218      1308.459        19.494         1.748        10.375
  WS02004139WS02001211      1393.016      2295.180       115.807        14.181        71.515
  WS02004138WS02004139      1399.339      2305.628       116.315        14.243        71.829
  WS02003067WS02003066       702.086      1294.057        19.240         1.724        10.236
  WS02001213WS02003059      1426.434      2347.941       119.225        14.612        73.661
  WS02001212WS02001213      1435.533      2362.883       119.986        14.705        74.132
  WS02001211WS02001212      1437.333      2365.812       120.143        14.725        74.229
  WS02003072WS02003073      2229.115      3802.176       148.361        17.577        90.093
  WS02003069WS02003072      2233.952      3810.046       148.782        17.628        90.354
  WS02003060WS02003069      2236.527      3814.376       148.964        17.650        90.466
  WS02003059WS02003060      1423.504      2343.049       119.004        14.585        73.526
  HS02004901HS02004770        10.270        19.477         0.195         0.015         0.091
  HS02004876HS02004881        37.316        72.576         0.843         0.062         0.416
  HS02004870HS02004876        28.159        54.625         0.678         0.051         0.338
  HS02004842HS02004848         5.467        10.276         0.115         0.008         0.053
  HS02004837HS02004842        10.073        17.583         0.584         0.067         0.347
  HS02004830HS02004837        65.639       112.704         4.557         0.546         2.785
  HS02004824HS02004830        66.390       113.907         4.628         0.555         2.830
  HS02004817HS02004824        88.206       156.974         5.083         0.584         3.051
  HS02004770HS02004777        39.295        75.465         0.819         0.055         0.377
  HS02004799HS02004480       131.408       245.366         3.680         0.335         1.933
  HS02004792HS02004799       119.085       220.660         3.497         0.327         1.853
  HS02004788HS02004792        68.396       126.857         2.388         0.235         1.309
  HS02004785HS02004788        40.733        77.759         0.969         0.074         0.471
  HS02004777HS02004785        40.060        76.668         0.909         0.067         0.434
  HS02004480HS02004478       165.955       312.596         4.244         0.375         2.196
  HS02004479HS02004480        38.153        72.986         0.885         0.079         0.463
  HS02004862HS02004870        21.015        40.115         0.536         0.043         0.270
  HS02004848HS02004852         8.057        15.279         0.167         0.011         0.077
  HS02004856HS02004862        14.071        27.339         0.284         0.019         0.133
  HS02004852HS02004856         8.064        15.290         0.167         0.011         0.077
  HS02004802HS02004478       102.885       186.884         5.162         0.576         3.055
  HS02004478WS02006287       268.253       498.530         9.364         0.945         5.225
  HS02004817HS02004807        86.886       154.856         4.956         0.568         2.972
  HS02004807HS02004802       103.112       187.240         5.194         0.580         3.075
  YS02001759YS02001757       307.548       558.770         6.172         0.428         3.017
  YS02001762YS02001759       156.267       284.423         3.319         0.234         1.643
  YS02001765YS02001762       157.416       287.325         3.366         0.238         1.669
  YS02001770YS02001767       158.641       291.510         3.226         0.215         1.570
  YS02001774YS02001770       206.659       394.576         4.032         0.267         1.951
  YS02001779YS02001774       206.019       393.274         4.125         0.281         2.015
  YS02001649YS02001757       345.826       618.123         7.008         0.482         3.375
  YS02001767YS02001765       158.889       290.725         3.416         0.242         1.697
  YS02006561YS02001783       935.833      1716.198        19.828         1.488         9.895
  YS02001783YS02001784       935.708      1715.997        19.823         1.488         9.893
  YS02001784YS02001785       943.036      1727.732        20.536         1.577        10.339
  YS02001788YS02001790       943.589      1728.609        20.608         1.586        10.385
  YS02001790YS02001791       944.601      1730.237        20.708         1.599        10.448
  YS02001791YS02001793       944.526      1730.104        20.704         1.598        10.445
  YS02001910YS02001907       330.114       599.236         8.233         0.642         4.254
  YS02001786YS02001788       943.240      1728.067        20.565         1.581        10.357
  YS02001915YS02001910       330.205       599.379         8.189         0.636         4.224
  YS02001918YS02001915       159.765       277.678         4.658         0.433         2.536
  YS02001923YS02001920       137.525       241.263         2.672         0.188         1.301
  YS02001926YS02001923       136.549       239.668         2.591         0.178         1.251
  YS02001929YS02001926       136.170       239.028         2.555         0.174         1.228
  YS02001920YS02001918       157.699       273.634         4.588         0.427         2.497
  YS02001629YS02163301       103.443       183.283         2.170         0.140         1.011
  YS02001619YS02001622       146.400       262.939         3.031         0.197         1.414
  YS02001622YS02001625       145.243       261.112         3.003         0.195         1.401
  YS02001625YS02001629       104.538       185.095         2.194         0.141         1.022
  YS02163301YS02001633       103.171       182.825         2.162         0.140         1.009
  YS02163601YS02164001       361.979       646.083         7.115         0.502         3.403
  YS02164001YS02001641       361.481       645.243         7.095         0.500         3.392
  YS02001641YS02001644       361.734       645.597         7.094         0.500         3.391
  YS02001647YS02001649       401.386       724.734         8.038         0.555         3.850
  YS02006553YS02006556       657.391      1199.937        14.231         1.095         7.177
  YS02006556YS02006558       657.317      1199.786        14.198         1.090         7.156
  YSB6556YSB1171              21.959        42.207         0.452         0.038         0.230
  YS02001907YS02006553       657.505      1200.175        14.244         1.096         7.186
  YS02006558YS02006561       935.882      1716.286        19.828         1.488         9.896
  YS02001633YS02163601       362.664       647.144         7.094         0.498         3.386
  YS02001644YS02001647       407.962       736.320         8.139         0.562         3.895
  YS02001745YS02001748       210.092       386.484         4.734         0.331         2.364
  YS02001748YS02001751       208.492       383.349         4.809         0.344         2.420
  YS02001751YS02001754       207.558       381.812         4.796         0.344         2.416
  YS02001754YS02001757       208.325       382.965         4.960         0.367         2.522
  YS02001882YS02001884         2.429         4.171         0.049         0.004         0.025
  YS02001884YS02001887         6.782        12.018         0.133         0.010         0.066
  YS02001890YS02001895       389.417       720.563         7.188         0.539         3.508
  YS02001895YS02001898       389.230       720.298         7.182         0.539         3.504
  YS02001898YS02001901       389.006       719.913         7.177         0.538         3.502
  YS02001901YS02001904       388.828       719.645         7.183         0.539         3.506
  YS02001904YS02001907       389.035       719.955         7.236         0.547         3.541
  YS02001887YS02001890       390.227       721.779         7.243         0.546         3.541
  YS02001652YS02001649       153.679       281.170         3.134         0.225         1.469
  YS02001655YS02001652       154.297       282.168         3.151         0.227         1.477
  YS02001658YS02001655       153.774       281.319         3.063         0.215         1.421
  YS02001661YS02001658       157.911       288.717         3.147         0.221         1.459
  YS02001664YS02001661       175.951       318.851         3.546         0.248         1.642
  YSB1154YSB6556              21.537        41.535         0.403         0.032         0.199
  YSB1174YSB1171              14.657        28.295         0.298         0.024         0.150
  YSB1171HS02004479           38.111        72.918         0.888         0.080         0.465
  HS02004881HS02006253        42.208        82.372         0.931         0.068         0.459
  YS02001793JiankangQianchi       944.430      1729.924        20.702         1.598        10.444
  YS02001757CaochengTiaoxuchi       522.694       939.492        11.123         0.804         5.484
  WSF200WS02003060           702.087      1294.016        19.254         1.726        10.245
  1                         2234.772      3810.744       149.041        17.664        90.524
  CC-Pump-1                  156.739       284.082         3.304         0.241         1.629
  CC-Pump-2                   65.070       117.741         1.375         0.100         0.678
  JK-Pump-1                  237.279       437.757         5.186         0.402         2.618
  JK-Pump-2                  496.927       922.765        10.426         0.787         5.204
  XR-Pump-1                  394.210       647.463        33.305         4.088        20.596
  XR-Pump-2                  336.297       554.776        27.776         3.398        17.144
  XR-Pump-3                  336.297       554.776        27.776         3.398        17.144
  XR-Pump-4                  336.297       554.776        27.776         3.398        17.144
  

  Analysis begun on:  Thu Jul 15 22:43:01 2021
  Analysis ended on:  Thu Jul 15 22:43:05 2021
  Total elapsed time: 00:00:04