
  EPA STORM WATER MANAGEMENT MODEL - VERSION 5.1 (Build 5.3.0.dev0)
  --------------------------------------------------------------

  WARNING 04: minimum elevation drop used for Conduit WS02004404WS02004405
  WARNING 03: negative offset ignored for Link YS02001904YS02001907
  
  *********************************************************
  NOTE: The summary statistics displayed in this report are
  based on results found at every computational time step,  
  not just on results from each reporting time step.
  *********************************************************
  
  ****************
  Analysis Options
  ****************
  Flow Units ............... LPS
  Process Models:
    Rainfall/Runoff ........ YES
    RDII ................... NO
    Snowmelt ............... NO
    Groundwater ............ NO
    Flow Routing ........... YES
    Ponding Allowed ........ NO
    Water Quality .......... YES
  Infiltration Method ...... HORTON
  Flow Routing Method ...... DYNWAVE
  Surcharge Method ......... EXTRAN
  Starting Date ............ 08/28/2015 08:00:00
  Ending Date .............. 08/28/2015 15:50:00
  Antecedent Dry Days ...... 8.0
  Report Time Step ......... 00:01:00
  Wet Time Step ............ 00:01:00
  Dry Time Step ............ 00:01:00
  Routing Time Step ........ 5.00 sec
  Variable Time Step ....... YES
  Maximum Trials ........... 8
  Number of Threads ........ 4
  Head Tolerance ........... 0.001500 m
  
  
  **************************        Volume         Depth
  Runoff Quantity Continuity     hectare-m            mm
  **************************     ---------       -------
  Total Precipitation ......         5.556        12.164
  Evaporation Loss .........         0.000         0.000
  Infiltration Loss ........         1.002         2.194
  Surface Runoff ...........         3.688         8.075
  Final Storage ............         0.866         1.897
  Continuity Error (%) .....        -0.019
  
  
  **************************           COD            SS            TN            TP         NH4-N
  Runoff Quality Continuity             kg            kg            kg            kg            kg
  **************************    ----------    ----------    ----------    ----------    ----------
  Initial Buildup ..........     41378.656     70582.865      1804.177       168.684      1032.807
  Surface Buildup ..........        19.275        34.271         2.335         0.213         1.362
  Wet Deposition ...........         0.000         0.000         0.000         0.000         0.000
  Sweeping Removal .........         0.000         0.000         0.000         0.000         0.000
  Infiltration Loss ........        84.023       157.502         1.599         0.111         0.761
  BMP Removal ..............         0.000         0.000         0.000         0.000         0.000
  Surface Runoff ...........      3122.074      5752.154        60.620         4.098        28.771
  Remaining Buildup ........     38190.779     64705.500      1744.271       164.686      1004.628
  Continuity Error (%) .....         0.003         0.003         0.001         0.001         0.001
  
  
  **************************        Volume        Volume
  Flow Routing Continuity        hectare-m      10^6 ltr
  **************************     ---------     ---------
  Dry Weather Inflow .......         0.616         6.165
  Wet Weather Inflow .......         3.687        36.871
  Groundwater Inflow .......         0.000         0.000
  RDII Inflow ..............         0.000         0.000
  External Inflow ..........         0.102         1.024
  External Outflow .........         1.807        18.074
  Flooding Loss ............         2.172        21.716
  Evaporation Loss .........         0.000         0.000
  Exfiltration Loss ........         0.000         0.000
  Initial Stored Volume ....         0.076         0.761
  Final Stored Volume ......         0.628         6.279
  Continuity Error (%) .....        -2.786
  
  
  **************************           COD            SS            TN            TP         NH4-N
  Quality Routing Continuity            kg            kg            kg            kg            kg
  **************************    ----------    ----------    ----------    ----------    ----------
  Dry Weather Inflow .......      1541.201      2465.922       147.955        18.494        92.472
  Wet Weather Inflow .......      3121.351      5750.933        60.605         4.097        28.764
  Groundwater Inflow .......         0.000         0.000         0.000         0.000         0.000
  RDII Inflow ..............         0.000         0.000         0.000         0.000         0.000
  External Inflow ..........       183.418       293.469        17.608         2.201        11.005
  External Outflow .........      2182.797      3715.766       147.766        17.558        89.862
  Flooding Loss ............      1939.652      3545.964        50.483         4.393        26.558
  Exfiltration Loss ........         0.000         0.000         0.000         0.000         0.000
  Mass Reacted .............         0.000         0.000         0.000         0.000         0.000
  Initial Stored Mass ......         0.000         0.000         0.000         0.000         0.000
  Final Stored Mass ........       548.428       942.741        23.861         2.531        13.780
  Continuity Error (%) .....         3.613         3.594         1.794         1.256         1.544
  
  
  *************************
  Highest Continuity Errors
  *************************
  Node HS02004842 (14.53%)
  Node JK-storage (-12.44%)
  Node YS02001884 (10.06%)
  Node YSB1171 (2.74%)
  Node HS02004817 (2.73%)
  
  
  ***************************
  Time-Step Critical Elements
  ***************************
  Link WS02006252WS02006251 (52.02%)
  Link WS02006280WS02006229 (12.23%)
  Link WS02006238WS02006235 (8.91%)
  Link YS02001793JiankangQianchi (7.39%)
  Link WS02004404WS02004405 (3.82%)
  
  
  ********************************
  Highest Flow Instability Indexes
  ********************************
  Link WS02006113WS02006111 (50)
  Link YS02163601YS02164001 (37)
  Link YS02163301YS02001633 (37)
  Link YS02001629YS02163301 (36)
  Link YS02001619YS02001622 (35)
  
  
  *************************
  Routing Time Step Summary
  *************************
  Minimum Time Step           :     0.04 sec
  Average Time Step           :     1.39 sec
  Maximum Time Step           :     5.00 sec
  Percent in Steady State     :    -0.00
  Average Iterations per Step :     4.27
  Percent Not Converging      :    20.10
  
  
  ***************************
  Subcatchment Runoff Summary
  ***************************
  
  ------------------------------------------------------------------------------------------------------------------------------
                            Total      Total      Total      Total     Imperv       Perv      Total       Total     Peak  Runoff
                           Precip      Runon       Evap      Infil     Runoff     Runoff     Runoff      Runoff   Runoff   Coeff
  Subcatchment                 mm         mm         mm         mm         mm         mm         mm    10^6 ltr      LPS
  ------------------------------------------------------------------------------------------------------------------------------
  sub0                      12.16       0.00       0.00       0.65      11.27       0.20      11.47        0.01     1.99   0.943
  sub1                      12.16       0.00       0.00       1.12      10.73       0.22      10.95        0.07    14.96   0.900
  sub2                      12.16       0.00       0.00       4.23       7.58       0.27       7.85        0.07    15.08   0.646
  sub3                      12.16       0.00       0.00       4.29       7.54       0.21       7.75        0.17    34.61   0.637
  sub4                      12.16       0.00       0.00       1.19      10.57       0.14      10.71        0.22    42.34   0.881
  sub5                      12.16       0.00       0.00       0.69      11.21       0.16      11.38        0.13    26.18   0.935
  sub7                      12.16       0.00       0.00       0.88      11.01       0.22      11.22        0.04     7.95   0.923
  sub8                      12.16       0.00       0.00       0.89      11.00       0.21      11.20        0.07    14.89   0.921
  sub9                      12.16       0.00       0.00       0.89      10.99       0.21      11.20        0.05    11.18   0.921
  sub10                     12.16       0.00       0.00       0.79      11.10       0.18      11.28        0.12    25.49   0.928
  sub11                     12.16       0.00       0.00       0.78      11.12       0.19      11.31        0.13    27.35   0.930
  sub12                     12.16       0.00       0.00       1.27      10.53       0.31      10.85        0.09    20.52   0.892
  sub14                     12.16       0.00       0.00       0.89      10.99       0.20      11.20        0.11    22.08   0.920
  sub15                     12.16       0.00       0.00       3.28       8.45       0.37       8.82        0.15    32.49   0.725
  sub16                     12.16       0.00       0.00       3.51       8.11       0.50       8.61        0.09    20.36   0.708
  sub17                     12.16       0.00       0.00       3.41       8.23       0.48       8.71        0.07    16.72   0.716
  sub22                     12.16       0.00       0.00       4.80       6.89       0.43       7.32        0.46   102.62   0.602
  sub23                     12.16       0.00       0.00       4.05       7.62       0.45       8.07        0.38    85.35   0.663
  sub60                     12.16       0.00       0.00       1.42       8.82       0.04       8.86        2.69   336.84   0.729
  sub61                     12.16       0.00       0.00       2.01       8.94       0.06       9.00        2.78   399.45   0.740
  sub62                     12.16       0.00       0.00       0.92       9.73       0.05       9.78        3.01   415.79   0.804
  sub63                     12.16       0.00       0.00       3.46       7.82       0.06       7.88        2.39   361.21   0.648
  sub64                     12.16       0.00       0.00       1.78       8.47       0.04       8.51        2.59   320.97   0.699
  sub65                     12.16       0.00       0.00       1.54       8.61       0.04       8.65        2.66   326.54   0.711
  sub66                     12.16       0.00       0.00       3.49       7.26       0.04       7.30        2.24   290.53   0.600
  sub67                     12.16       0.00       0.00       0.91      10.24       0.07      10.31        3.18   494.23   0.848
  sub68                     12.16       0.00       0.00       1.64       9.40       0.06       9.46        2.91   432.52   0.778
  sub69                     12.16       0.00       0.00       1.73       9.72       0.09       9.82        2.29   383.95   0.807
  sub70                     12.16      10.02       0.00       6.98      13.09       0.56      13.65        3.12   394.93   0.615
  sub71                     12.16       0.00       0.00       0.93       9.48       0.05       9.53        2.25   296.34   0.783
  sub72                     12.16       0.00       0.00       0.83       7.62       0.02       7.64        1.56   151.13   0.628
  1                         12.16      13.29       0.00       1.37      14.64       3.94      18.57        4.36   399.24   0.730
  2                         12.16       0.00       0.00       3.02       2.89       1.65       4.55        1.82   245.52   0.374
  
  
  ****************************
  Subcatchment Washoff Summary
  ****************************
  
  ------------------------------------------------------------------------------------------
                                 COD            SS            TN            TP         NH4-N
  Subcatchment                    kg            kg            kg            kg            kg
  ------------------------------------------------------------------------------------------
  sub0                         2.176         4.147         0.037         0.003         0.018
  sub1                         9.268        18.138         0.173         0.012         0.083
  sub2                         5.563        10.570         0.119         0.008         0.054
  sub3                        13.747        25.918         0.288         0.019         0.132
  sub4                        21.530        42.606         0.429         0.026         0.205
  sub5                        21.300        41.103         0.378         0.029         0.183
  sub7                         4.748         9.424         0.090         0.006         0.043
  sub8                         7.142        14.500         0.143         0.008         0.069
  sub9                         6.100        12.212         0.118         0.007         0.057
  sub10                       17.532        34.266         0.321         0.023         0.155
  sub11                       17.086        33.770         0.320         0.022         0.154
  sub12                       14.392        27.890         0.260         0.019         0.125
  sub14                       13.021        25.823         0.247         0.016         0.119
  sub15                       16.182        30.744         0.313         0.023         0.146
  sub16                       10.318        19.555         0.197         0.015         0.092
  sub17                        9.471        17.789         0.175         0.014         0.082
  sub22                       48.821        90.813         0.932         0.070         0.434
  sub23                       29.138        56.181         0.627         0.041         0.287
  sub60                      203.703       376.194         4.083         0.248         1.956
  sub61                      251.300       461.579         4.699         0.320         2.261
  sub62                      262.762       491.326         5.157         0.324         2.474
  sub63                      185.047       334.594         3.739         0.261         1.731
  sub64                      253.867       452.095         4.687         0.339         2.235
  sub65                      260.106       465.192         4.834         0.344         2.309
  sub66                      146.558       263.078         3.037         0.197         1.417
  sub67                      388.205       718.566         6.963         0.510         3.363
  sub68                      276.714       513.393         5.318         0.356         2.539
  sub69                      247.676       464.012         4.658         0.325         2.225
  sub70                      413.256       778.342         8.287         0.572         3.877
  sub71                      173.740       327.842         3.597         0.206         1.720
  sub72                      136.329       239.316         2.558         0.174         1.230
  1                          280.724       531.718         5.751         0.398         2.660
  2                           35.485        61.812         1.030         0.062         0.437
  ------------------------------------------------------------------------------------------
  System                    3783.006      6994.507        73.566         4.996        34.873
  
  
  ******************
  Node Depth Summary
  ******************
  
  ---------------------------------------------------------------------------------
                                 Average  Maximum  Maximum  Time of Max    Reported
                                   Depth    Depth      HGL   Occurrence   Max Depth
  Node                 Type       Meters   Meters   Meters  days hr:min      Meters
  ---------------------------------------------------------------------------------
  WS02001211           JUNCTION     0.76     0.81     5.65     0  03:12        0.81
  WS02001212           JUNCTION     0.47     0.53     5.59     0  03:11        0.53
  WS02001213           JUNCTION     0.70     0.79     5.55     0  03:11        0.79
  WS02003069           JUNCTION     0.49     0.63     5.22     0  03:10        0.63
  WS02003072           JUNCTION     0.55     0.68     5.05     0  03:10        0.68
  WS02003073           JUNCTION     0.34     0.42     4.49     0  03:11        0.42
  WS02003060           JUNCTION     0.44     0.56     5.49     0  03:09        0.56
  WS02003066           JUNCTION     0.23     0.33     5.88     0  03:07        0.33
  WS02003059           JUNCTION     0.75     0.84     5.53     0  03:10        0.84
  WS02003067           JUNCTION     0.56     0.75     6.07     0  03:07        0.75
  WS02004401           JUNCTION     0.66     0.99     6.99     0  03:05        0.99
  WS02004402           JUNCTION     0.69     1.01     6.97     0  03:05        1.01
  WS02004403           JUNCTION     0.71     1.01     6.94     0  03:05        1.01
  WS02004404           JUNCTION     0.79     1.07     6.92     0  03:05        1.07
  WS02004406           JUNCTION     0.79     1.04     6.87     0  03:05        1.04
  WS02004409           JUNCTION     0.48     0.76     6.53     0  03:07        0.76
  WS02004410           JUNCTION     0.50     0.77     6.49     0  03:07        0.77
  WS02004411           JUNCTION     0.51     0.77     6.45     0  03:08        0.77
  WS02004412           JUNCTION     0.53     0.77     6.41     0  03:08        0.77
  WS02004413           JUNCTION     0.68     0.92     6.39     0  03:07        0.92
  WS02004405           JUNCTION     0.78     1.06     6.91     0  03:05        1.05
  WS02006109           JUNCTION     0.75     1.12     7.74     0  03:03        1.11
  WS02006110           JUNCTION     0.74     1.02     7.61     0  03:03        1.02
  WS02006111           JUNCTION     0.21     0.39     7.10     0  03:05        0.39
  WS02006112           JUNCTION     0.83     1.21     7.10     0  03:06        1.21
  WS02006113           JUNCTION     0.33     0.52     7.41     0  03:03        0.52
  WS02006115           JUNCTION     0.55     0.91     7.05     0  03:05        0.91
  WS02006116           JUNCTION     0.64     0.99     7.03     0  03:05        0.99
  WS02006230           JUNCTION     0.72     1.20     7.94     0  03:03        1.20
  WS02006231           JUNCTION     0.47     0.88     8.01     0  04:09        0.88
  WS02006232           JUNCTION     0.60     1.08     8.11     0  04:53        1.07
  WS02006234           JUNCTION     0.52     1.09     8.25     0  04:09        1.08
  WS02006235           JUNCTION     0.55     1.18     8.34     0  04:10        1.16
  WS02006238           JUNCTION     0.58     1.21     8.36     0  04:09        1.19
  WS02006240           JUNCTION     0.46     1.15     8.44     0  04:09        1.14
  WS02006242           JUNCTION     0.51     1.22     8.49     0  04:11        1.22
  WS02006243           JUNCTION     0.39     1.13     8.55     0  04:09        1.12
  WS02006245           JUNCTION     0.36     1.12     8.60     0  04:10        1.11
  WS02006247           JUNCTION     0.37     1.14     8.64     0  04:09        1.13
  WS02006248           JUNCTION     0.31     1.09     8.67     0  04:09        1.07
  WS02006249           JUNCTION     0.33     1.09     8.69     0  04:09        1.09
  WS02006239           JUNCTION     0.53     1.19     8.40     0  04:09        1.18
  WS02006251           JUNCTION     0.31     1.35     9.02     0  04:09        1.18
  WS02006252           JUNCTION     0.20     0.90     9.14     0  04:09        0.74
  WS02006253           JUNCTION     0.34     1.55     9.20     0  04:09        1.21
  WS02006256           JUNCTION     1.66     2.35     9.28     0  00:00        2.35
  WS02004138           JUNCTION     0.19     0.20     7.45     0  00:00        0.19
  WS02004139           JUNCTION     0.71     0.75     5.66     0  03:12        0.75
  WS02004407           JUNCTION     0.21     0.33     6.65     0  03:06        0.33
  WS02006228           JUNCTION     0.75     1.19     7.84     0  03:02        1.19
  WS02006229           JUNCTION     0.73     1.21     7.90     0  03:02        1.21
  WS02006280           JUNCTION     0.07     0.20     8.47     0  03:02        0.20
  WS02006284           JUNCTION     0.38     0.56     8.96     0  03:02        0.56
  WS02006287           JUNCTION     0.11     0.30     9.25     0  03:01        0.30
  WSF200               JUNCTION     0.21     0.35     5.59     0  03:08        0.35
  HS02004901           JUNCTION     0.13     0.29    10.12     0  03:01        0.29
  HS02004881           JUNCTION     0.01     0.04     9.07     0  03:01        0.04
  HS02004876           JUNCTION     0.05     0.12     9.15     0  03:01        0.12
  HS02004870           JUNCTION     0.02     0.07     9.35     0  03:01        0.07
  HS02004862           JUNCTION     0.02     0.08     9.46     0  03:01        0.08
  HS02004856           JUNCTION     0.08     0.13     9.55     0  03:01        0.13
  HS02004852           JUNCTION     0.01     0.05     9.56     0  03:01        0.05
  HS02004848           JUNCTION     0.01     0.05     9.65     0  03:01        0.05
  HS02004842           JUNCTION     0.34     0.38     9.65     0  03:01        0.38
  HS02004837           JUNCTION     0.03     0.07     9.65     0  03:01        0.07
  HS02004830           JUNCTION     0.04     0.08     9.55     0  03:01        0.08
  HS02004824           JUNCTION     0.03     0.06     9.47     0  03:01        0.06
  HS02004817           JUNCTION     0.45     0.61     9.45     0  03:01        0.61
  HS02004807           JUNCTION     0.13     0.28     9.45     0  03:01        0.28
  HS02004802           JUNCTION     0.17     0.31     9.44     0  03:01        0.31
  HS02004799           JUNCTION     0.13     0.35     9.56     0  03:01        0.35
  HS02004792           JUNCTION     0.04     0.15     9.67     0  03:01        0.15
  HS02004788           JUNCTION     0.03     0.11    10.01     0  03:01        0.11
  HS02004785           JUNCTION     0.05     0.18    10.09     0  03:01        0.18
  HS02004777           JUNCTION     0.15     0.31    10.11     0  03:01        0.31
  HS02004770           JUNCTION     0.12     0.29    10.12     0  03:01        0.29
  HS02004480           JUNCTION     0.09     0.28     9.52     0  03:01        0.28
  HS02004479           JUNCTION     0.13     0.32     9.52     0  03:01        0.32
  HS02004478           JUNCTION     0.07     0.20     9.42     0  03:01        0.20
  YS02001745           JUNCTION     0.73     0.93     8.45     0  03:00        0.93
  YS02001748           JUNCTION     1.12     2.27     9.35     0  02:28        1.36
  YS02001751           JUNCTION     1.30     2.17     9.05     0  02:28        1.56
  YS02001754           JUNCTION     1.56     2.10     8.71     0  02:28        1.83
  YS02001762           JUNCTION     1.76     2.04     8.44     0  03:01        2.03
  YS02001765           JUNCTION     1.71     1.99     8.44     0  02:58        1.98
  YS02001767           JUNCTION     1.67     1.94     8.43     0  02:58        1.93
  YS02001770           JUNCTION     1.67     1.92     8.42     0  03:00        1.92
  YS02001774           JUNCTION     1.73     1.98     8.40     0  02:28        1.98
  YS02001779           JUNCTION     1.48     1.68     8.37     0  02:28        1.68
  YS02001882           JUNCTION     0.55     1.63     8.35     0  02:47        1.61
  YS02001884           JUNCTION     0.65     1.73     8.34     0  02:47        1.71
  YS02001759           JUNCTION     1.79     2.08     8.44     0  02:58        2.07
  YS02001887           JUNCTION     0.72     1.80     8.34     0  02:47        1.79
  YS02001890           JUNCTION     0.75     1.81     8.32     0  02:47        1.81
  YS02001898           JUNCTION     0.52     1.57     8.30     0  02:47        1.55
  YS02001901           JUNCTION     0.64     1.68     8.29     0  02:47        1.67
  YS02001904           JUNCTION     0.62     1.64     8.27     0  02:47        1.63
  YS02001907           JUNCTION     0.95     1.96     8.25     0  02:47        1.96
  YS02001910           JUNCTION     0.74     1.79     8.29     0  02:48        1.78
  YS02001915           JUNCTION     0.54     1.60     8.32     0  02:48        1.59
  YS02001918           JUNCTION     0.28     1.30     8.37     0  02:48        1.28
  YS02001619           JUNCTION     1.27     1.61     8.54     0  02:27        1.47
  YS02001629           JUNCTION     1.62     1.85     8.40     0  02:27        1.84
  YS02001641           JUNCTION     1.72     1.94     8.37     0  02:36        1.93
  YS02001644           JUNCTION     1.72     1.92     8.35     0  02:28        1.92
  YS02001652           JUNCTION     1.57     2.16     8.76     0  02:19        1.90
  YS02001655           JUNCTION     1.33     2.20     9.05     0  02:18        1.69
  YS02001920           JUNCTION     0.38     1.38     8.39     0  02:48        1.37
  YS02001923           JUNCTION     0.21     1.15     8.41     0  02:48        1.13
  YS02001926           JUNCTION     0.27     0.99     8.43     0  02:48        0.90
  YS02001929           JUNCTION     0.15     0.73     8.42     0  02:48        0.70
  YS02001658           JUNCTION     1.06     2.30     9.44     0  02:40        1.43
  YS02001661           JUNCTION     0.83     2.46     9.86     0  02:38        1.14
  YS02001664           JUNCTION     0.37     0.57     8.50     0  02:39        0.56
  YS02001622           JUNCTION     1.29     1.62     8.52     0  02:27        1.50
  YS02001633           JUNCTION     1.71     1.94     8.40     0  02:35        1.94
  YS02001649           JUNCTION     1.76     2.05     8.44     0  02:36        2.04
  YS02001757           JUNCTION     1.89     2.17     8.44     0  02:58        2.17
  YS02001895           JUNCTION     0.52     1.56     8.31     0  02:47        1.55
  YS02001625           JUNCTION     1.57     1.78     8.38     0  02:26        1.78
  YS02163301           JUNCTION     1.65     1.88     8.40     0  02:48        1.88
  YS02163601           JUNCTION     1.76     1.99     8.39     0  02:59        1.98
  YS02164001           JUNCTION     1.70     1.92     8.38     0  02:34        1.91
  YS02001647           JUNCTION     1.55     1.80     8.41     0  02:40        1.79
  YSB1154              JUNCTION     0.27     0.47     9.52     0  03:01        0.47
  YSB6556              JUNCTION     0.16     0.35     9.52     0  03:01        0.35
  YSB1174              JUNCTION     0.22     0.41     9.52     0  03:01        0.41
  YSB1171              JUNCTION     0.42     0.62     9.52     0  03:01        0.62
  YS02006553           JUNCTION     0.95     1.97     8.25     0  02:57        1.96
  YS02006561           JUNCTION     0.30     1.10     7.76     0  02:47        1.08
  YS02006556           JUNCTION     0.92     1.92     8.23     0  02:58        1.92
  YS02006558           JUNCTION     0.96     1.96     8.23     0  03:00        1.96
  YS02001783           JUNCTION     0.52     1.49     7.63     0  02:47        1.47
  YS02001784           JUNCTION     0.54     1.58     7.64     0  02:43        1.41
  YS02001786           JUNCTION     0.47     1.90     7.93     0  02:43        1.25
  YS02001788           JUNCTION     0.40     1.83     7.81     0  02:43        1.13
  YS02001790           JUNCTION     0.51     1.96     7.60     0  02:42        1.29
  YS02001791           JUNCTION     0.46     2.23     7.70     0  04:30        1.28
  YS02001793           JUNCTION     0.60     2.71     7.54     0  04:29        1.80
  WSC                  OUTFALL      0.34     0.42     1.09     0  03:11        0.42
  JK-storage           STORAGE      2.55     5.80     6.60     0  02:01        5.80
  CC-storage           STORAGE      1.14     1.44     8.44     0  03:07        1.44
  XR-storage           STORAGE      6.48     7.72     5.72     0  02:52        7.72
  
  
  *******************
  Node Inflow Summary
  *******************
  
  -------------------------------------------------------------------------------------------------
                                  Maximum  Maximum                  Lateral       Total        Flow
                                  Lateral    Total  Time of Max      Inflow      Inflow     Balance
                                   Inflow   Inflow   Occurrence      Volume      Volume       Error
  Node                 Type           LPS      LPS  days hr:min    10^6 ltr    10^6 ltr     Percent
  -------------------------------------------------------------------------------------------------
  WS02001211           JUNCTION      7.35   389.65     0  04:30       0.207          10       0.392
  WS02001212           JUNCTION      0.00   391.95     0  04:30           0        9.99       0.223
  WS02001213           JUNCTION      0.00   394.25     0  04:30           0        9.97       0.273
  WS02003069           JUNCTION      0.32  1074.18     0  03:10     0.00902        18.1       0.137
  WS02003072           JUNCTION      0.00  1074.00     0  03:10           0        18.1       0.177
  WS02003073           JUNCTION      1.82  1075.83     0  03:11      0.0514        18.1       0.195
  WS02003060           JUNCTION     16.53  1074.16     0  03:09       0.466        18.1       0.132
  WS02003066           JUNCTION      0.00   676.39     0  03:07           0        7.76       0.027
  WS02003059           JUNCTION      0.00   397.98     0  04:30           0        9.94       0.370
  WS02003067           JUNCTION      0.00   676.02     0  03:07           0        7.77       0.067
  WS02004401           JUNCTION      0.00   681.85     0  03:05           0        7.91       0.179
  WS02004402           JUNCTION      0.00   679.96     0  03:05           0        7.89       0.175
  WS02004403           JUNCTION      0.00   679.94     0  03:05           0        7.88       0.164
  WS02004404           JUNCTION      0.16   680.07     0  03:05     0.00457        7.87       0.129
  WS02004406           JUNCTION      0.00   680.73     0  03:05           0        7.85       0.317
  WS02004409           JUNCTION      0.00   680.74     0  03:06           0        7.82       0.078
  WS02004410           JUNCTION      0.00   678.65     0  03:06           0        7.81       0.098
  WS02004411           JUNCTION      0.00   677.54     0  03:06           0        7.81       0.109
  WS02004412           JUNCTION      0.00   676.46     0  03:07           0         7.8       0.132
  WS02004413           JUNCTION      0.00   676.20     0  03:07           0        7.79       0.221
  WS02004405           JUNCTION      0.04   680.38     0  03:05     0.00107        7.86       0.198
  WS02006109           JUNCTION      1.23   675.30     0  03:02      0.0347        7.92       0.214
  WS02006110           JUNCTION      0.00   675.31     0  03:02           0         7.9       0.204
  WS02006111           JUNCTION      0.00   711.48     0  03:03           0        7.88       0.033
  WS02006112           JUNCTION     16.72   686.15     0  03:04      0.0747        7.95       0.261
  WS02006113           JUNCTION      0.00   676.47     0  03:03           0        7.89       0.091
  WS02006115           JUNCTION      0.00   686.76     0  03:04           0        7.93       0.151
  WS02006116           JUNCTION      0.00   682.70     0  03:04           0        7.92       0.151
  WS02006230           JUNCTION     10.28   531.41     0  04:59        0.29        5.75       0.204
  WS02006231           JUNCTION      0.00   521.21     0  04:59           0        5.47       0.133
  WS02006232           JUNCTION      0.00   521.10     0  04:56           0        5.48       0.269
  WS02006234           JUNCTION      0.00   521.36     0  04:55           0        5.49       0.084
  WS02006235           JUNCTION      0.00   522.25     0  04:54           0        5.58       0.187
  WS02006238           JUNCTION      0.00   347.73     0  05:32           0        2.17       0.211
  WS02006240           JUNCTION      0.00   352.34     0  05:31           0        2.11       0.483
  WS02006242           JUNCTION      0.00   356.35     0  05:31           0        2.09       0.665
  WS02006243           JUNCTION      0.00   358.01     0  05:31           0        2.08       0.246
  WS02006245           JUNCTION      0.00   357.69     0  05:31           0        2.09       0.542
  WS02006247           JUNCTION      0.00   360.25     0  05:31           0        2.09       0.369
  WS02006248           JUNCTION      0.00   364.83     0  05:30           0        2.09       0.145
  WS02006249           JUNCTION      0.00   430.55     0  04:53           0        2.15       0.555
  WS02006239           JUNCTION      0.00   349.22     0  05:32           0        2.14       0.244
  WS02006251           JUNCTION      0.08   414.51     0  04:53     0.00217         2.2       0.361
  WS02006252           JUNCTION      0.00   400.00     0  04:50           0        1.74       0.028
  WS02006253           JUNCTION      1.99   130.27     0  04:51     0.00928       0.461       0.871
  WS02006256           JUNCTION      0.00   983.00     0  00:00           0        9.73      -0.006
  WS02004138           JUNCTION      0.00   380.00     0  00:00           0        9.86       0.066
  WS02004139           JUNCTION      0.32   396.51     0  00:00     0.00905        9.86       0.449
  WS02004407           JUNCTION      0.00   681.44     0  03:05           0        7.82       0.039
  WS02006228           JUNCTION      0.00   674.16     0  03:02           0         7.9       0.167
  WS02006229           JUNCTION      0.00   672.99     0  03:03           0        7.91       0.158
  WS02006280           JUNCTION      0.00   413.61     0  03:02           0        2.17       0.003
  WS02006284           JUNCTION      0.10   413.56     0  03:02      0.0027        2.17       0.040
  WS02006287           JUNCTION      0.00   413.22     0  03:01           0        2.17       0.034
  WSF200               JUNCTION      0.00   676.52     0  03:08           0        7.76       0.019
  HS02004901           JUNCTION     20.36    20.36     0  03:01      0.0902      0.0904       1.992
  HS02004881           JUNCTION      7.95    84.19     0  03:01      0.0378        0.41       0.076
  HS02004876           JUNCTION     14.96    76.75     0  03:01      0.0728       0.373       0.147
  HS02004870           JUNCTION     14.89    62.15     0  03:01      0.0716         0.3       0.038
  HS02004862           JUNCTION     15.28    47.68     0  03:01      0.0788       0.229       0.077
  HS02004856           JUNCTION     11.18    32.72     0  03:01      0.0539       0.152       0.963
  HS02004852           JUNCTION      0.00    21.94     0  03:01           0      0.0979       0.059
  HS02004848           JUNCTION     34.61    34.61     0  03:01       0.174       0.174       0.029
  HS02004842           JUNCTION      0.00    12.41     0  03:01           0      0.0895      16.997
  HS02004837           JUNCTION     31.84    43.95     0  03:01       0.303        0.38       0.215
  HS02004830           JUNCTION      0.15    43.86     0  03:01     0.00423        0.37       0.334
  HS02004824           JUNCTION     42.39    85.90     0  03:01       0.225       0.594       0.092
  HS02004817           JUNCTION      0.60    86.28     0  03:01      0.0169        0.61       2.809
  HS02004807           JUNCTION     27.35   112.32     0  03:01       0.131       0.726       0.605
  HS02004802           JUNCTION      0.00   111.36     0  03:01           0       0.723       0.549
  HS02004799           JUNCTION     22.08   258.93     0  03:01       0.107        1.24       0.223
  HS02004792           JUNCTION    102.90   238.01     0  03:01        0.47        1.14       0.037
  HS02004788           JUNCTION     34.16   135.94     0  03:01       0.199       0.669       0.059
  HS02004785           JUNCTION      0.15   103.52     0  03:01     0.00423       0.471       0.106
  HS02004777           JUNCTION      0.03   104.16     0  03:01    0.000846       0.472       1.115
  HS02004770           JUNCTION     85.35   105.12     0  03:01       0.385       0.473       0.660
  HS02004480           JUNCTION      0.00   302.45     0  03:01           0        1.46       0.076
  HS02004479           JUNCTION      0.00    44.90     0  03:02           0       0.232       0.318
  HS02004478           JUNCTION      0.00   413.08     0  03:01           0        2.17       0.014
  YS02001745           JUNCTION    336.84   421.53     0  02:26        2.69         2.7       0.419
  YS02001748           JUNCTION      0.04   587.84     0  02:26     0.00127        2.69       0.794
  YS02001751           JUNCTION      0.01   359.09     0  02:17     0.00031        2.65       0.899
  YS02001754           JUNCTION      0.26   342.13     0  03:01     0.00733        2.64       0.949
  YS02001762           JUNCTION      0.00   291.89     0  02:38           0        2.07       1.028
  YS02001765           JUNCTION      0.00   291.84     0  02:38           0        2.07       1.180
  YS02001767           JUNCTION      0.54   291.87     0  02:38      0.0151         2.1       1.719
  YS02001770           JUNCTION    415.94   621.99     0  03:09        3.01        3.63       0.867
  YS02001774           JUNCTION      0.00   622.31     0  03:09           0        2.14       1.177
  YS02001779           JUNCTION      0.01   622.45     0  03:09    0.000141        2.11       0.736
  YS02001882           JUNCTION      0.00    18.80     0  02:43           0      0.0214      10.893
  YS02001884           JUNCTION      0.00    36.06     0  02:43           0      0.0589      11.189
  YS02001759           JUNCTION    399.49   573.67     0  02:38        2.78         4.2       0.547
  YS02001887           JUNCTION    494.68   494.68     0  03:01        3.19        3.23       0.260
  YS02001890           JUNCTION      0.00   495.24     0  03:01           0        3.18       0.288
  YS02001898           JUNCTION      0.00   495.73     0  03:01           0        3.16       0.084
  YS02001901           JUNCTION      0.00   495.13     0  03:01           0        3.16       0.217
  YS02001904           JUNCTION      0.00   495.57     0  03:01           0        3.16       0.193
  YS02001907           JUNCTION      0.00   949.27     0  03:01           0        7.02       0.346
  YS02001910           JUNCTION      0.00   502.73     0  02:49           0        3.88       0.305
  YS02001915           JUNCTION    296.36   502.04     0  02:49        2.25        3.91       0.147
  YS02001918           JUNCTION      0.00   254.07     0  02:49           0        1.67       0.075
  YS02001619           JUNCTION    290.53   290.53     0  03:01        2.24        2.24       0.548
  YS02001629           JUNCTION      0.00   213.09     0  02:17           0        1.69       1.726
  YS02001641           JUNCTION      0.00   396.99     0  02:35           0        4.25       0.497
  YS02001644           JUNCTION    321.01  1400.32     0  03:01        2.59          11       0.242
  YS02001652           JUNCTION      0.00   377.26     0  03:01           0        2.34       1.004
  YS02001655           JUNCTION      0.15   395.91     0  02:18     0.00434        2.36       1.013
  YS02001920           JUNCTION      2.87   253.54     0  02:49      0.0809        1.66       0.164
  YS02001923           JUNCTION      0.04   303.88     0  02:49     0.00106        1.57       0.034
  YS02001926           JUNCTION      0.05   235.50     0  02:48     0.00147        1.56       0.195
  YS02001929           JUNCTION    151.13   151.13     0  03:01        1.56        1.56       0.038
  YS02001658           JUNCTION      0.00   601.90     0  02:23           0         2.4       0.899
  YS02001661           JUNCTION      0.00   651.10     0  02:41           0        2.68      -0.147
  YS02001664           JUNCTION    361.21   364.01     0  02:37        2.38        2.67       0.240
  YS02001622           JUNCTION      0.00   290.79     0  03:00           0        2.22       1.441
  YS02001633           JUNCTION    326.74   396.46     0  02:35        2.66        4.31       0.749
  YS02001649           JUNCTION      0.00   831.50     0  02:35           0        6.37       0.583
  YS02001757           JUNCTION      0.00  1578.92     0  02:35           0        8.64       1.078
  YS02001895           JUNCTION      0.00   495.25     0  03:01           0        3.17       0.155
  YS02001625           JUNCTION      0.00   290.77     0  03:01           0        2.19       1.807
  YS02163301           JUNCTION      0.00   200.65     0  02:26           0        1.67       1.455
  YS02163601           JUNCTION      0.11   396.38     0  02:35      0.0031        4.27       0.706
  YS02164001           JUNCTION      0.00   396.63     0  02:35           0        4.25       0.470
  YS02001647           JUNCTION      0.00   735.11     0  03:09           0         5.6       0.504
  YSB1154              JUNCTION     26.18    26.18     0  03:01       0.129        0.13       1.132
  YSB6556              JUNCTION      0.00    25.82     0  03:01           0        0.13       0.969
  YSB1174              JUNCTION     20.52    20.52     0  03:01      0.0948      0.0953       1.369
  YSB1171              JUNCTION      0.00    45.30     0  03:01           0       0.231       2.822
  YS02006553           JUNCTION      0.00   705.34     0  03:31           0        6.58       0.237
  YS02006561           JUNCTION      0.00   981.38     0  03:11           0        9.46       0.007
  YS02006556           JUNCTION      0.00   705.49     0  03:31           0        6.58       0.173
  YS02006558           JUNCTION    433.40   982.23     0  03:12        2.93        9.49       0.052
  YS02001783           JUNCTION      0.00   981.12     0  03:11           0        9.46       0.025
  YS02001784           JUNCTION      1.06   982.24     0  03:12      0.0299        9.49       0.037
  YS02001786           JUNCTION      0.06   982.03     0  03:12     0.00159        9.48       0.034
  YS02001788           JUNCTION      0.07   982.22     0  03:17       0.002        9.48       0.021
  YS02001790           JUNCTION      0.15   982.44     0  03:12     0.00437        9.48       0.009
  YS02001791           JUNCTION      0.00   982.48     0  03:11           0        9.48       0.016
  YS02001793           JUNCTION      0.00   982.44     0  03:12           0        9.48      -0.024
  WSC                  OUTFALL       0.00  1076.00     0  03:11           0        18.1       0.000
  JK-storage           STORAGE       0.00  1006.88     0  02:41           0        9.64     -11.068
  CC-storage           STORAGE       0.00  1578.82     0  02:35           0        5.88       1.107
  XR-storage           STORAGE     844.76   844.76     0  03:01        11.8        12.4      -0.002
  
  
  **********************
  Node Surcharge Summary
  **********************
  
  Surcharging occurs when water rises above the top of the highest conduit.
  ---------------------------------------------------------------------
                                               Max. Height   Min. Depth
                                   Hours       Above Crown    Below Rim
  Node                 Type      Surcharged         Meters       Meters
  ---------------------------------------------------------------------
  WS02004402           JUNCTION        0.06          0.009        1.731
  WS02004403           JUNCTION        0.07          0.011        2.019
  WS02004404           JUNCTION        0.36          0.071        2.709
  WS02004406           JUNCTION        0.20          0.041        2.409
  WS02004405           JUNCTION        0.24          0.057        2.743
  WS02006109           JUNCTION        2.34          0.299        1.521
  WS02006110           JUNCTION        1.16          0.113        1.737
  WS02006112           JUNCTION        1.52          0.214        1.466
  WS02006230           JUNCTION        0.51          0.118        1.452
  WS02006231           JUNCTION        0.77          0.174        1.356
  WS02006232           JUNCTION        2.12          0.376        1.104
  WS02006234           JUNCTION        1.14          0.368        0.872
  WS02006235           JUNCTION        1.43          0.465        0.825
  WS02006238           JUNCTION        1.51          0.492        0.938
  WS02006240           JUNCTION        0.71          0.435        0.955
  WS02006242           JUNCTION        0.75          0.493        0.327
  WS02006243           JUNCTION        0.46          0.422        0.348
  WS02006245           JUNCTION        0.42          0.409        0.441
  WS02006247           JUNCTION        0.42          0.427        0.333
  WS02006248           JUNCTION        0.37          0.366        0.014
  WS02006249           JUNCTION        0.38          0.390        0.000
  WS02006239           JUNCTION        0.91          0.447        0.843
  WS02006251           JUNCTION        0.22          0.321        0.859
  WS02006252           JUNCTION        0.61          0.502        0.598
  WS02006253           JUNCTION        0.23          0.512        1.968
  WS02006256           JUNCTION        6.71          2.050        0.000
  WS02006228           JUNCTION        2.32          0.361        1.839
  YS02001748           JUNCTION        5.31          1.190        0.000
  YS02001751           JUNCTION        5.48          1.167        0.033
  YS02001754           JUNCTION        5.70          1.055        0.095
  YS02001762           JUNCTION        5.87          1.036        0.114
  YS02001765           JUNCTION        5.84          0.987        0.113
  YS02001767           JUNCTION        5.81          0.937        0.093
  YS02001770           JUNCTION        5.80          0.893        0.027
  YS02001774           JUNCTION        5.86          0.983        0.067
  YS02001779           JUNCTION        5.67          0.680        0.000
  YS02001882           JUNCTION        0.84          0.633        0.197
  YS02001884           JUNCTION        0.87          0.667        0.203
  YS02001759           JUNCTION        5.89          1.076        0.134
  YS02001887           JUNCTION        0.97          0.748        0.202
  YS02001890           JUNCTION        1.00          0.760        0.000
  YS02001898           JUNCTION        0.80          0.538        0.202
  YS02001901           JUNCTION        0.92          0.679        0.191
  YS02001904           JUNCTION        0.89          0.639        0.211
  YS02001907           JUNCTION        1.77          0.950        0.000
  YS02001910           JUNCTION        1.06          0.787        0.313
  YS02001915           JUNCTION        0.82          0.604        0.396
  YS02001918           JUNCTION        0.66          0.299        0.511
  YS02001619           JUNCTION        5.47          0.610        0.000
  YS02001629           JUNCTION        5.48          0.470        0.000
  YS02001641           JUNCTION        5.85          0.936        0.164
  YS02001644           JUNCTION        5.85          0.920        0.000
  YS02001652           JUNCTION        5.73          1.130        0.000
  YS02001655           JUNCTION        5.51          1.200        0.000
  YS02001920           JUNCTION        0.69          0.381        0.759
  YS02001658           JUNCTION        5.34          1.300        0.000
  YS02001661           JUNCTION        0.15          1.390        0.000
  YS02001622           JUNCTION        5.51          0.620        0.000
  YS02001633           JUNCTION        5.83          0.925        0.135
  YS02001649           JUNCTION        5.87          1.050        0.000
  YS02001757           JUNCTION        5.98          1.174        0.036
  YS02001895           JUNCTION        0.81          0.563        0.187
  YS02001625           JUNCTION        5.76          0.780        0.000
  YS02163301           JUNCTION        5.81          0.882        0.148
  YS02163601           JUNCTION        5.87          0.987        0.093
  YS02164001           JUNCTION        5.84          0.919        0.181
  YS02001647           JUNCTION        5.75          0.802        0.098
  YS02006553           JUNCTION        1.85          0.967        0.223
  YS02006561           JUNCTION        0.71          0.296        0.854
  YS02006556           JUNCTION        1.31          0.882        0.468
  YS02006558           JUNCTION        1.26          0.863        0.537
  YS02001783           JUNCTION        0.99          0.687        0.913
  YS02001784           JUNCTION        0.94          0.777        0.713
  YS02001786           JUNCTION        0.83          1.103        0.327
  YS02001788           JUNCTION        0.78          1.029        0.451
  YS02001790           JUNCTION        1.62          1.157        0.000
  YS02001791           JUNCTION        1.80          1.431        0.489
  YS02001793           JUNCTION        2.09          1.712        0.888
  
  
  *********************
  Node Flooding Summary
  *********************
  
  Flooding refers to all water that overflows a node, whether it ponds or not.
  --------------------------------------------------------------------------
                                                             Total   Maximum
                                 Maximum   Time of Max       Flood    Ponded
                        Hours       Rate    Occurrence      Volume     Depth
  Node                 Flooded       LPS   days hr:min    10^6 ltr    Meters
  --------------------------------------------------------------------------
  WS02006249              0.20    109.31      0  04:53       0.047     0.000
  WS02006256              3.70    978.40      0  00:00       6.257     0.000
  YS02001748              0.01    143.70      0  02:28       0.000     0.000
  YS02001779              2.89    622.44      0  03:09       2.086     0.000
  YS02001890              0.01     14.80      0  02:47       0.000     0.000
  YS02001907              0.54    410.92      0  03:01       0.431     0.000
  YS02001619              0.01     20.22      0  02:27       0.000     0.000
  YS02001629              0.01     26.02      0  02:27       0.000     0.000
  YS02001644              5.11   1400.02      0  03:01       9.558     0.000
  YS02001652              0.01     27.71      0  02:20       0.000     0.000
  YS02001655              0.01    303.52      0  02:19       0.001     0.000
  YS02001658              0.01      4.92      0  02:40       0.000     0.000
  YS02001661              0.01    187.64      0  02:40       0.000     0.000
  YS02001622              0.01     11.42      0  02:27       0.000     0.000
  YS02001649              0.02     50.08      0  02:40       0.001     0.000
  YS02001625              1.20    236.32      0  03:01       0.465     0.000
  YS02001790              0.01    204.94      0  04:31       0.000     0.000
  JK-storage              0.66    964.88      0  02:49       0.938     0.000
  XR-storage              3.10    464.68      0  03:01       1.932     0.000
  
  
  **********************
  Storage Volume Summary
  **********************
  
  --------------------------------------------------------------------------------------------------
                         Average     Avg  Evap Exfil       Maximum     Max    Time of Max    Maximum
                          Volume    Pcnt  Pcnt  Pcnt        Volume    Pcnt     Occurrence    Outflow
  Storage Unit           1000 m3    Full  Loss  Loss       1000 m3    Full    days hr:min        LPS
  --------------------------------------------------------------------------------------------------
  JK-storage               0.128      44     0     0         0.291     100       0  02:01     983.00
  CC-storage               3.177      20     0     0         4.000      25       0  03:07     400.00
  XR-storage               0.777      84     0     0         0.926     100       0  02:52     380.00
  
  
  ***********************
  Outfall Loading Summary
  ***********************
  
  ---------------------------------------------------------------------------------------------------------------------------------
                         Flow       Avg       Max       Total         Total         Total         Total         Total         Total
                         Freq      Flow      Flow      Volume           COD            SS            TN            TP         NH4-N
  Outfall Node           Pcnt       LPS       LPS    10^6 ltr            kg            kg            kg            kg            kg
  ---------------------------------------------------------------------------------------------------------------------------------
  WSC                   99.98    714.39   1076.00      18.074      2183.001      3716.101       147.783        17.560        89.872
  ---------------------------------------------------------------------------------------------------------------------------------
  System                99.98    714.39   1076.00      18.074      2183.001      3716.101       147.783        17.560        89.872
  
  
  ********************
  Link Flow Summary
  ********************
  
  -----------------------------------------------------------------------------
                                 Maximum  Time of Max   Maximum    Max/    Max/
                                  |Flow|   Occurrence   |Veloc|    Full    Full
  Link                 Type          LPS  days hr:min     m/sec    Flow   Depth
  -----------------------------------------------------------------------------
  WS02003066WSF200     CONDUIT    676.52     0  03:08      2.85    0.11    0.26
  WS02006287WS02006284 CONDUIT    413.47     0  03:02      2.04    0.19    0.30
  WS02006284WS02006280 CONDUIT    413.61     0  03:02      2.28    0.17    0.28
  WS02006280WS02006229 CONDUIT    413.66     0  03:02      3.68    0.09    0.20
  WS02006229WS02006228 CONDUIT    674.16     0  03:02      1.34    2.23    1.00
  WS02006256WS02006235 CONDUIT    288.60     0  00:00      4.23    3.05    1.00
  WS02006253WS02006251 CONDUIT    128.36     0  04:51      0.62    0.38    1.00
  WS02006252WS02006251 CONDUIT    404.67     0  04:53      3.22    1.49    1.00
  WS02006251WS02006249 CONDUIT    430.55     0  04:53      1.12    1.24    1.00
  WS02006249WS02006248 CONDUIT    364.83     0  05:30      1.12    2.00    1.00
  WS02006248WS02006247 CONDUIT    360.25     0  05:31      1.06    0.78    1.00
  WS02006247WS02006245 CONDUIT    357.69     0  05:31      1.02    2.84    1.00
  WS02006245WS02006243 CONDUIT    358.01     0  05:31      1.05    1.06    1.00
  WS02006243WS02006242 CONDUIT    356.35     0  05:31      0.98    0.76    1.00
  WS02006242WS02006240 CONDUIT    352.34     0  05:31      0.95    1.40    1.00
  WS02006240WS02006239 CONDUIT    349.22     0  05:32      0.99    1.10    1.00
  WS02006239WS02006238 CONDUIT    347.73     0  05:32      0.94    1.11    1.00
  WS02006238WS02006235 CONDUIT    347.39     0  05:32      1.46    0.78    1.00
  WS02006235WS02006234 CONDUIT    521.36     0  04:55      1.35    5.50    1.00
  WS02006234WS02006232 CONDUIT    521.10     0  04:56      1.39    1.05    1.00
  WS02006232WS02006231 CONDUIT    521.21     0  04:59      1.35    1.09    1.00
  WS02006231WS02006230 CONDUIT    521.13     0  04:59      1.35    7.90    1.00
  WS02006230WS02006229 CONDUIT    532.98     0  04:53      1.38   11.86    1.00
  WS02006228WS02006109 CONDUIT    674.07     0  03:02      1.34    2.95    1.00
  WS02006116WS02004401 CONDUIT    681.85     0  03:05      0.87    0.94    0.99
  WS02006115WS02006116 CONDUIT    682.70     0  03:04      0.91    0.88    0.92
  WS02006113WS02006111 CONDUIT    711.48     0  03:03      2.60    0.85    0.56
  WS02006112WS02006115 CONDUIT    686.76     0  03:04      0.89    0.41    0.95
  WS02006111WS02006112 CONDUIT    675.55     0  03:05      1.71    0.32    0.74
  WS02006110WS02006113 CONDUIT    676.47     0  03:03      1.53    0.62    0.83
  WS02006109WS02006110 CONDUIT    675.31     0  03:02      1.34    1.30    1.00
  WS02004411WS02004412 CONDUIT    676.46     0  03:07      1.04    0.96    0.77
  WS02004401WS02004402 CONDUIT    679.96     0  03:05      0.87    0.82    1.00
  WS02004413WS02003067 CONDUIT    676.02     0  03:07      1.26    0.29    0.64
  WS02004412WS02004413 CONDUIT    676.20     0  03:07      0.96    0.45    0.85
  WS02004410WS02004411 CONDUIT    677.54     0  03:06      1.04    0.93    0.77
  WS02004409WS02004410 CONDUIT    678.65     0  03:06      1.05    0.88    0.77
  WS02004407WS02004409 CONDUIT    680.74     0  03:06      1.55    0.24    0.55
  WS02004406WS02004407 CONDUIT    681.44     0  03:05      1.22    0.30    0.67
  WS02004405WS02004406 CONDUIT    680.73     0  03:05      0.87    1.34    1.00
  WS02004404WS02004405 CONDUIT    680.34     0  03:05      0.87    6.67    1.00
  WS02004403WS02004404 CONDUIT    679.91     0  03:05      0.87    0.49    1.00
  WS02004402WS02004403 CONDUIT    679.94     0  03:05      0.87    0.98    1.00
  WS02004139WS02001211 CONDUIT    382.30     0  04:30      0.90    0.48    0.61
  WS02004138WS02004139 CONDUIT    396.19     0  00:00      3.65    0.08    0.45
  WS02003067WS02003066 CONDUIT    676.39     0  03:07      1.37    0.22    0.45
  WS02001213WS02003059 CONDUIT    397.98     0  04:30      0.88    0.66    0.81
  WS02001212WS02001213 CONDUIT    394.25     0  04:30      1.32    0.61    0.50
  WS02001211WS02001212 CONDUIT    391.95     0  04:30      0.78    0.30    0.67
  WS02003072WS02003073 CONDUIT   1074.00     0  03:11      1.81    2.32    0.52
  WS02003069WS02003072 CONDUIT   1074.00     0  03:10      1.69    0.52    0.55
  WS02003060WS02003069 CONDUIT   1073.86     0  03:10      1.93    0.42    0.49
  WS02003059WS02003060 CONDUIT    403.21     0  04:29      0.95    0.26    0.70
  HS02004901HS02004770 CONDUIT     20.52     0  03:01      0.07    0.08    0.42
  HS02004876HS02004881 CONDUIT     76.54     0  03:01      0.95    0.81    0.12
  HS02004870HS02004876 CONDUIT     61.90     0  03:01      0.65    0.04    0.14
  HS02004842HS02004848 CONDUIT     12.41     0  03:01      0.06    0.01    0.31
  HS02004837HS02004842 CONDUIT     12.98     0  03:02      0.42    0.01    0.32
  HS02004830HS02004837 CONDUIT     43.71     0  03:01      0.57    0.04    0.11
  HS02004824HS02004830 CONDUIT     43.66     0  03:01      0.59    0.06    0.11
  HS02004817HS02004824 CONDUIT     85.68     0  03:01      0.26    0.04    0.48
  HS02004770HS02004777 CONDUIT    104.13     0  03:01      0.35    0.19    0.43
  HS02004799HS02004480 CONDUIT    258.30     0  03:01      0.83    0.33    0.44
  HS02004792HS02004799 CONDUIT    237.04     0  03:01      0.95    0.15    0.36
  HS02004788HS02004792 CONDUIT    135.42     0  03:01      1.06    0.09    0.18
  HS02004785HS02004788 CONDUIT    103.22     0  03:02      0.71    0.78    0.21
  HS02004777HS02004785 CONDUIT    103.37     0  03:01      0.42    0.13    0.35
  HS02004480HS02004478 CONDUIT    302.29     0  03:01      1.26    1.27    0.34
  HS02004479HS02004480 CONDUIT     46.29     0  03:02      0.32    0.04    0.43
  HS02004862HS02004870 CONDUIT     47.43     0  03:01      0.66    0.05    0.10
  HS02004848HS02004852 CONDUIT     21.94     0  03:01      0.45    0.02    0.07
  HS02004856HS02004862 CONDUIT     32.47     0  03:01      0.48    0.03    0.10
  HS02004852HS02004856 CONDUIT     21.85     0  03:02      0.25    0.02    0.13
  HS02004802HS02004478 CONDUIT    111.52     0  03:02      0.45    0.10    0.36
  HS02004478WS02006287 CONDUIT    413.22     0  03:01      1.75    0.12    0.26
  HS02004817HS02004807 CONDUIT     86.13     0  03:01      0.19    0.05    0.63
  HS02004807HS02004802 CONDUIT    111.36     0  03:01      0.38    0.21    0.42
  YS02001759YS02001757 CONDUIT    573.77     0  02:38      0.73    0.41    1.00
  YS02001762YS02001759 CONDUIT    291.89     0  02:38      0.37    0.34    1.00
  YS02001765YS02001762 CONDUIT    291.89     0  02:38      0.37    0.27    1.00
  YS02001770YS02001767 CONDUIT    291.34     0  02:38      0.37    1.15    1.00
  YS02001774YS02001770 CONDUIT    622.31     0  03:09      0.79    0.40    1.00
  YS02001779YS02001774 CONDUIT    622.44     0  03:09      0.79    0.31    1.00
  YS02001649YS02001757 CONDUIT    831.57     0  02:35      1.06    0.50    1.00
  YS02001767YS02001765 CONDUIT    291.84     0  02:38      0.37    0.37    1.00
  YS02006561YS02001783 CONDUIT    981.12     0  03:11      2.20    0.51    1.00
  YS02001783YS02001784 CONDUIT    981.18     0  03:12      1.95    1.35    1.00
  YS02001784YS02001785 CONDUIT    981.98     0  03:12      1.95    2.29    1.00
  YS02001788YS02001790 CONDUIT    982.29     0  03:12      2.46    0.72    1.00
  YS02001790YS02001791 CONDUIT    982.48     0  03:11      3.08    1.07    1.00
  YS02001791YS02001793 CONDUIT    982.44     0  03:12      6.13    0.42    1.00
  YS02001910YS02001907 CONDUIT    503.41     0  02:49      0.64    0.28    1.00
  YS02001786YS02001788 CONDUIT    982.15     0  03:17      2.33    1.89    1.00
  YS02001915YS02001910 CONDUIT    502.73     0  02:49      0.64    0.25    1.00
  YS02001918YS02001915 CONDUIT    256.36     0  02:49      0.44    0.14    1.00
  YS02001923YS02001920 CONDUIT    250.67     0  02:49      0.72    0.11    1.00
  YS02001926YS02001923 CONDUIT    303.85     0  02:49      0.83    0.43    0.92
  YS02001929YS02001926 CONDUIT    234.44     0  02:49      0.89    0.11    0.84
  YS02001920YS02001918 CONDUIT    254.07     0  02:49      0.70    0.25    1.00
  YS02001629YS02163301 CONDUIT    200.65     0  02:26      0.26    0.25    1.00
  YS02001619YS02001622 CONDUIT    290.79     0  03:00      0.61    0.43    1.00
  YS02001622YS02001625 CONDUIT    290.77     0  03:01      0.37    0.16    1.00
  YS02001625YS02001629 CONDUIT    213.09     0  02:17      0.27    0.10    1.00
  YS02163301YS02001633 CONDUIT    202.09     0  02:26      0.26    0.19    1.00
  YS02163601YS02164001 CONDUIT    396.63     0  02:35      0.51    0.35    1.00
  YS02164001YS02001641 CONDUIT    396.99     0  02:35      0.51    0.54    1.00
  YS02001641YS02001644 CONDUIT    397.07     0  02:35      0.51    1.28    1.00
  YS02001647YS02001649 CONDUIT    735.11     0  03:09      0.94    0.39    1.00
  YS02006553YS02006556 CONDUIT    705.49     0  03:31      0.90    0.60    1.00
  YS02006556YS02006558 CONDUIT    705.77     0  03:31      0.90    0.56    1.00
  YSB6556YSB1171       CONDUIT     25.75     0  03:03      0.09    0.03    0.70
  YS02001907YS02006553 CONDUIT    705.34     0  03:31      0.78    0.83    1.00
  YS02006558YS02006561 CONDUIT    981.38     0  03:11      3.56    2.17    1.00
  YS02001633YS02163601 CONDUIT    396.27     0  02:35      0.50    0.42    1.00
  YS02001644YS02001647 CONDUIT    735.51     0  03:09      0.94    0.43    1.00
  YS02001745YS02001748 CONDUIT    587.79     0  02:26      1.47    0.23    0.97
  YS02001748YS02001751 CONDUIT    359.08     0  02:17      1.06    0.18    1.00
  YS02001751YS02001754 CONDUIT    341.87     0  03:01      0.92    0.16    1.00
  YS02001754YS02001757 CONDUIT    341.84     0  03:01      0.44    0.14    1.00
  YS02001882YS02001884 CONDUIT     18.80     0  02:43      0.13    0.02    1.00
  YS02001884YS02001887 CONDUIT     36.06     0  02:43      0.09    0.05    1.00
  YS02001890YS02001895 CONDUIT    495.25     0  03:01      0.63    0.23    1.00
  YS02001895YS02001898 CONDUIT    495.73     0  03:01      0.63    0.86    1.00
  YS02001898YS02001901 CONDUIT    495.13     0  03:01      0.63    0.32    1.00
  YS02001901YS02001904 CONDUIT    495.57     0  03:01      0.63    0.77    1.00
  YS02001904YS02001907 CONDUIT    495.86     0  03:01      0.63    0.17    1.00
  YS02001887YS02001890 CONDUIT    495.24     0  03:01      0.63    0.85    1.00
  YS02001652YS02001649 CONDUIT    377.85     0  03:01      0.63    0.19    1.00
  YS02001655YS02001652 CONDUIT    377.26     0  03:01      0.98    0.18    1.00
  YS02001658YS02001655 CONDUIT    395.76     0  02:18      1.22    0.17    1.00
  YS02001661YS02001658 CONDUIT    601.90     0  02:23      1.55    0.24    1.00
  YS02001664YS02001661 CONDUIT    651.10     0  02:41      1.43    0.20    0.77
  YSB1154YSB6556       CONDUIT     25.82     0  03:01      0.17    0.05    0.59
  YSB1174YSB1171       CONDUIT     20.15     0  03:01      0.07    0.03    0.70
  YSB1171HS02004479    CONDUIT     44.90     0  03:02      0.54    0.03    0.55
  HS02004881HS02006253 CONDUIT     84.16     0  03:01      2.23    0.02    0.51
  YS02001793JiankangQianchi CONDUIT   1006.88     0  02:41     18.36    0.08    1.00
  YS02001757CaochengTiaoxuchi CONDUIT   1578.82     0  02:35      2.02    0.69    1.00
  WSF200WS02003060     CONDUIT    676.79     0  03:08      1.72    0.15    0.38
  1                    CONDUIT   1076.00     0  03:11      3.39    0.37    0.42
  CC-Pump-1            PUMP       200.00     0  04:00              1.00
  CC-Pump-2            PUMP       200.00     0  04:50              1.00
  JK-Pump-1            PUMP       300.00     0  00:00              1.00
  JK-Pump-2            PUMP       683.00     0  00:00              1.00
  XR-Pump-1            PUMP        95.00     0  00:00              1.00
  XR-Pump-2            PUMP        95.00     0  00:00              1.00
  XR-Pump-3            PUMP        95.00     0  00:00              1.00
  XR-Pump-4            PUMP        95.00     0  00:00              1.00
  
  
  ***************************
  Flow Classification Summary
  ***************************
  
  -------------------------------------------------------------------------------------
                      Adjusted    ---------- Fraction of Time in Flow Class ---------- 
                       /Actual         Up    Down  Sub   Sup   Up    Down  Norm  Inlet 
  Conduit               Length    Dry  Dry   Dry   Crit  Crit  Crit  Crit  Ltd   Ctrl  
  -------------------------------------------------------------------------------------
  WS02003066WSF200        1.00   0.01  0.07  0.00  0.00  0.92  0.00  0.00  0.57  0.00
  WS02006287WS02006284    1.00   0.03  0.02  0.00  0.58  0.38  0.00  0.00  0.62  0.00
  WS02006284WS02006280    1.00   0.04  0.00  0.00  0.00  0.00  0.00  0.96  0.00  0.00
  WS02006280WS02006229    1.00   0.04  0.00  0.00  0.00  0.00  0.00  0.96  0.00  0.00
  WS02006229WS02006228    1.00   0.00  0.00  0.00  1.00  0.00  0.00  0.00  0.00  0.00
  WS02006256WS02006235    1.00   0.00  0.00  0.00  1.00  0.00  0.00  0.00  0.00  0.00
  WS02006253WS02006251    1.00   0.02  0.02  0.00  0.96  0.00  0.01  0.00  0.00  0.00
  WS02006252WS02006251    1.00   0.29  0.00  0.00  0.03  0.00  0.68  0.00  0.00  0.00
  WS02006251WS02006249    1.00   0.00  0.00  0.00  1.00  0.00  0.00  0.00  0.33  0.00
  WS02006249WS02006248    1.00   0.00  0.01  0.00  0.85  0.00  0.14  0.00  0.00  0.00
  WS02006248WS02006247    1.00   0.01  0.00  0.00  0.98  0.00  0.00  0.02  0.19  0.00
  WS02006247WS02006245    1.00   0.01  0.00  0.00  0.95  0.00  0.00  0.04  0.00  0.00
  WS02006245WS02006243    1.00   0.00  0.00  0.00  0.92  0.00  0.00  0.07  0.02  0.00
  WS02006243WS02006242    1.00   0.00  0.00  0.00  1.00  0.00  0.00  0.00  0.30  0.00
  WS02006242WS02006240    1.00   0.00  0.00  0.00  0.99  0.00  0.01  0.00  0.00  0.00
  WS02006240WS02006239    1.00   0.00  0.00  0.00  0.93  0.00  0.00  0.07  0.02  0.00
  WS02006239WS02006238    1.00   0.00  0.00  0.00  1.00  0.00  0.00  0.00  0.14  0.00
  WS02006238WS02006235    1.00   0.00  0.00  0.00  1.00  0.00  0.00  0.00  0.00  0.00
  WS02006235WS02006234    1.00   0.00  0.00  0.00  0.94  0.00  0.06  0.00  0.00  0.00
  WS02006234WS02006232    1.00   0.00  0.00  0.00  1.00  0.00  0.00  0.00  0.10  0.00
  WS02006232WS02006231    1.00   0.00  0.00  0.00  1.00  0.00  0.00  0.00  0.00  0.00
  WS02006231WS02006230    1.00   0.00  0.00  0.00  0.58  0.00  0.42  0.00  0.00  0.00
  WS02006230WS02006229    1.00   0.00  0.00  0.00  1.00  0.00  0.00  0.00  0.01  0.00
  WS02006228WS02006109    1.00   0.00  0.00  0.00  1.00  0.00  0.00  0.00  0.01  0.00
  WS02006116WS02004401    1.00   0.01  0.00  0.00  0.99  0.00  0.00  0.00  0.01  0.00
  WS02006115WS02006116    1.00   0.01  0.00  0.00  0.97  0.00  0.00  0.02  0.01  0.00
  WS02006113WS02006111    1.00   0.01  0.00  0.00  0.00  0.99  0.00  0.00  0.22  0.00
  WS02006112WS02006115    1.00   0.01  0.00  0.00  0.99  0.00  0.00  0.00  0.00  0.00
  WS02006111WS02006112    1.00   0.01  0.00  0.00  0.99  0.00  0.00  0.00  0.95  0.00
  WS02006110WS02006113    1.00   0.00  0.00  0.00  0.99  0.00  0.00  0.00  0.00  0.00
  WS02006109WS02006110    1.00   0.00  0.00  0.00  0.99  0.00  0.00  0.00  0.00  0.00
  WS02004411WS02004412    1.00   0.06  0.00  0.00  0.94  0.00  0.00  0.00  0.00  0.00
  WS02004401WS02004402    1.00   0.01  0.00  0.00  0.99  0.00  0.00  0.00  0.01  0.00
  WS02004413WS02003067    1.00   0.06  0.01  0.00  0.00  0.00  0.93  0.00  0.00  0.00
  WS02004412WS02004413    1.00   0.06  0.00  0.00  0.94  0.00  0.00  0.00  0.00  0.00
  WS02004410WS02004411    1.00   0.06  0.00  0.00  0.94  0.00  0.00  0.00  0.00  0.00
  WS02004409WS02004410    1.00   0.06  0.00  0.00  0.94  0.00  0.00  0.00  0.00  0.00
  WS02004407WS02004409    1.00   0.06  0.00  0.00  0.94  0.01  0.00  0.00  0.81  0.00
  WS02004406WS02004407    1.00   0.00  0.06  0.00  0.94  0.00  0.00  0.00  0.00  0.00
  WS02004405WS02004406    1.00   0.00  0.00  0.00  1.00  0.00  0.00  0.00  0.02  0.00
  WS02004404WS02004405    1.00   0.00  0.00  0.00  1.00  0.00  0.00  0.00  0.00  0.00
  WS02004403WS02004404    1.00   0.00  0.01  0.00  0.99  0.00  0.00  0.00  0.02  0.00
  WS02004402WS02004403    1.00   0.01  0.00  0.00  0.99  0.00  0.00  0.00  0.00  0.00
  WS02004139WS02001211    1.00   0.00  0.00  0.00  1.00  0.00  0.00  0.00  0.00  0.00
  WS02004138WS02004139    1.00   0.00  0.00  0.00  1.00  0.00  0.00  0.00  1.00  0.00
  WS02003067WS02003066    1.00   0.07  0.00  0.00  0.92  0.00  0.00  0.00  0.00  0.00
  WS02001213WS02003059    1.00   0.00  0.00  0.00  1.00  0.00  0.00  0.00  0.00  0.00
  WS02001212WS02001213    1.00   0.00  0.00  0.00  0.88  0.00  0.12  0.00  0.00  0.00
  WS02001211WS02001212    1.00   0.00  0.00  0.00  1.00  0.00  0.00  0.00  0.00  0.00
  WS02003072WS02003073    1.00   0.00  0.00  0.00  0.00  0.00  0.00  1.00  0.00  0.00
  WS02003069WS02003072    1.00   0.00  0.00  0.00  1.00  0.00  0.00  0.00  0.12  0.00
  WS02003060WS02003069    1.00   0.00  0.00  0.00  0.99  0.01  0.00  0.00  0.07  0.00
  WS02003059WS02003060    1.00   0.00  0.00  0.00  1.00  0.00  0.00  0.00  0.00  0.00
  HS02004901HS02004770    1.00   0.04  0.00  0.00  0.96  0.00  0.00  0.00  0.00  0.00
  HS02004876HS02004881    1.00   0.01  0.00  0.00  0.91  0.08  0.00  0.00  0.00  0.00
  HS02004870HS02004876    1.00   0.00  0.00  0.00  0.99  0.00  0.00  0.00  0.95  0.00
  HS02004842HS02004848    1.00   0.00  0.04  0.00  0.96  0.00  0.00  0.00  0.55  0.00
  HS02004837HS02004842    1.00   0.00  0.00  0.00  1.00  0.00  0.00  0.00  0.11  0.00
  HS02004830HS02004837    1.00   0.00  0.00  0.00  1.00  0.00  0.00  0.00  0.99  0.00
  HS02004824HS02004830    1.00   0.00  0.00  0.00  1.00  0.00  0.00  0.00  0.00  0.00
  HS02004817HS02004824    1.00   0.00  0.00  0.00  1.00  0.00  0.00  0.00  1.00  0.00
  HS02004770HS02004777    1.00   0.00  0.04  0.00  0.96  0.00  0.00  0.00  0.02  0.00
  HS02004799HS02004480    1.00   0.00  0.01  0.00  0.95  0.00  0.03  0.00  0.00  0.00
  HS02004792HS02004799    1.00   0.00  0.00  0.00  1.00  0.00  0.00  0.00  0.98  0.00
  HS02004788HS02004792    1.00   0.00  0.00  0.00  1.00  0.00  0.00  0.00  0.98  0.00
  HS02004785HS02004788    1.00   0.00  0.00  0.00  1.00  0.00  0.00  0.00  0.00  0.00
  HS02004777HS02004785    1.00   0.00  0.00  0.00  1.00  0.00  0.00  0.00  0.12  0.00
  HS02004480HS02004478    1.00   0.04  0.00  0.00  0.65  0.00  0.00  0.31  0.00  0.00
  HS02004479HS02004480    1.00   0.01  0.00  0.00  0.99  0.00  0.00  0.00  0.11  0.00
  HS02004862HS02004870    1.00   0.00  0.00  0.00  1.00  0.00  0.00  0.00  0.03  0.00
  HS02004848HS02004852    1.00   0.04  0.00  0.00  0.96  0.00  0.00  0.00  0.62  0.00
  HS02004856HS02004862    1.00   0.00  0.05  0.00  0.95  0.00  0.00  0.00  0.83  0.00
  HS02004852HS02004856    1.00   0.04  0.00  0.00  0.96  0.00  0.00  0.00  0.85  0.00
  HS02004802HS02004478    1.00   0.04  0.00  0.00  0.96  0.00  0.00  0.00  0.02  0.00
  HS02004478WS02006287    1.00   0.05  0.00  0.00  0.73  0.22  0.00  0.00  0.64  0.00
  HS02004817HS02004807    1.00   0.00  0.04  0.00  0.96  0.00  0.00  0.00  0.01  0.00
  HS02004807HS02004802    1.00   0.04  0.00  0.00  0.96  0.00  0.00  0.00  0.00  0.00
  YS02001759YS02001757    1.00   0.00  0.00  0.00  1.00  0.00  0.00  0.00  0.16  0.00
  YS02001762YS02001759    1.00   0.00  0.00  0.00  1.00  0.00  0.00  0.00  0.03  0.00
  YS02001765YS02001762    1.00   0.00  0.00  0.00  1.00  0.00  0.00  0.00  0.13  0.00
  YS02001770YS02001767    1.00   0.00  0.00  0.00  1.00  0.00  0.00  0.00  0.00  0.00
  YS02001774YS02001770    1.00   0.00  0.04  0.00  0.96  0.00  0.00  0.00  0.02  0.00
  YS02001779YS02001774    1.00   0.00  0.00  0.00  1.00  0.00  0.00  0.00  0.18  0.00
  YS02001649YS02001757    1.00   0.00  0.00  0.00  1.00  0.00  0.00  0.00  0.16  0.00
  YS02001767YS02001765    1.00   0.00  0.00  0.00  1.00  0.00  0.00  0.00  0.00  0.00
  YS02006561YS02001783    1.00   0.05  0.00  0.00  0.33  0.61  0.00  0.00  0.49  0.00
  YS02001783YS02001784    1.00   0.00  0.06  0.00  0.94  0.00  0.00  0.00  0.00  0.00
  YS02001784YS02001785    1.00   0.00  0.00  0.00  1.00  0.00  0.00  0.00  0.17  0.00
  YS02001788YS02001790    1.00   0.00  0.00  0.00  0.35  0.65  0.00  0.00  0.38  0.00
  YS02001790YS02001791    1.00   0.00  0.00  0.00  0.31  0.69  0.00  0.00  0.48  0.00
  YS02001791YS02001793    1.00   0.00  0.00  0.00  0.33  0.67  0.00  0.00  0.03  0.00
  YS02001910YS02001907    1.00   0.00  0.00  0.00  0.99  0.00  0.00  0.01  0.12  0.00
  YS02001786YS02001788    1.00   0.00  0.00  0.00  0.34  0.66  0.00  0.00  0.00  0.00
  YS02001915YS02001910    1.00   0.00  0.00  0.00  0.99  0.01  0.00  0.00  0.15  0.00
  YS02001918YS02001915    1.00   0.00  0.00  0.00  0.99  0.00  0.00  0.00  0.55  0.00
  YS02001923YS02001920    1.00   0.00  0.00  0.00  1.00  0.00  0.00  0.00  0.84  0.00
  YS02001926YS02001923    1.00   0.00  0.02  0.00  0.13  0.00  0.85  0.00  0.00  0.00
  YS02001929YS02001926    1.00   0.00  0.04  0.00  0.96  0.00  0.00  0.00  0.77  0.00
  YS02001920YS02001918    1.00   0.00  0.00  0.00  1.00  0.00  0.00  0.00  0.00  0.00
  YS02001629YS02163301    1.00   0.04  0.00  0.00  0.95  0.00  0.00  0.00  0.00  0.00
  YS02001619YS02001622    1.00   0.04  0.00  0.00  0.96  0.00  0.00  0.00  0.00  0.00
  YS02001622YS02001625    1.00   0.04  0.00  0.00  0.96  0.00  0.00  0.00  0.04  0.00
  YS02001625YS02001629    1.00   0.04  0.02  0.00  0.92  0.00  0.02  0.00  0.00  0.00
  YS02163301YS02001633    1.00   0.00  0.04  0.00  0.96  0.00  0.00  0.00  0.00  0.00
  YS02163601YS02164001    1.00   0.00  0.03  0.00  0.97  0.00  0.00  0.00  0.00  0.00
  YS02164001YS02001641    1.00   0.00  0.02  0.00  0.97  0.00  0.00  0.00  0.06  0.00
  YS02001641YS02001644    1.00   0.00  0.00  0.00  1.00  0.00  0.00  0.00  0.00  0.00
  YS02001647YS02001649    1.00   0.00  0.05  0.00  0.95  0.00  0.00  0.00  0.01  0.00
  YS02006553YS02006556    1.00   0.01  0.00  0.00  0.99  0.00  0.00  0.00  0.03  0.00
  YS02006556YS02006558    1.00   0.00  0.00  0.00  1.00  0.00  0.00  0.00  0.00  0.00
  YSB6556YSB1171          1.00   0.01  0.02  0.00  0.96  0.00  0.00  0.00  0.00  0.00
  YS02001907YS02006553    1.00   0.00  0.01  0.00  0.99  0.00  0.00  0.00  0.00  0.00
  YS02006558YS02006561    1.00   0.05  0.00  0.00  0.12  0.82  0.00  0.00  0.49  0.00
  YS02001633YS02163601    1.00   0.00  0.00  0.00  1.00  0.00  0.00  0.00  0.15  0.00
  YS02001644YS02001647    1.00   0.00  0.05  0.00  0.95  0.00  0.00  0.00  0.00  0.00
  YS02001745YS02001748    1.00   0.00  0.00  0.00  0.90  0.01  0.00  0.09  0.04  0.00
  YS02001748YS02001751    1.00   0.00  0.00  0.00  0.97  0.03  0.00  0.00  0.15  0.00
  YS02001751YS02001754    1.00   0.00  0.00  0.00  0.94  0.00  0.00  0.06  0.02  0.00
  YS02001754YS02001757    1.00   0.00  0.00  0.00  1.00  0.00  0.00  0.00  0.18  0.00
  YS02001882YS02001884    1.00   0.04  0.00  0.00  0.95  0.00  0.00  0.00  0.00  0.00
  YS02001884YS02001887    1.00   0.02  0.02  0.00  0.97  0.00  0.00  0.00  0.00  0.00
  YS02001890YS02001895    1.00   0.00  0.05  0.00  0.95  0.00  0.00  0.00  0.00  0.00
  YS02001895YS02001898    1.00   0.05  0.00  0.00  0.94  0.00  0.01  0.00  0.00  0.00
  YS02001898YS02001901    1.00   0.05  0.00  0.00  0.95  0.00  0.00  0.00  0.01  0.00
  YS02001901YS02001904    1.00   0.05  0.00  0.00  0.95  0.00  0.00  0.00  0.00  0.00
  YS02001904YS02001907    1.00   0.00  0.05  0.00  0.95  0.00  0.00  0.00  0.00  0.00
  YS02001887YS02001890    1.00   0.00  0.00  0.00  0.99  0.00  0.01  0.00  0.00  0.00
  YS02001652YS02001649    1.00   0.00  0.00  0.00  1.00  0.00  0.00  0.00  0.16  0.00
  YS02001655YS02001652    1.00   0.00  0.00  0.00  0.94  0.00  0.00  0.06  0.02  0.00
  YS02001658YS02001655    1.00   0.00  0.04  0.00  0.93  0.03  0.00  0.00  0.08  0.00
  YS02001661YS02001658    1.00   0.04  0.00  0.00  0.90  0.06  0.00  0.00  0.08  0.00
  YS02001664YS02001661    1.00   0.04  0.00  0.00  0.91  0.05  0.00  0.00  0.19  0.00
  YSB1154YSB6556          1.00   0.04  0.00  0.00  0.96  0.00  0.00  0.00  0.01  0.00
  YSB1174YSB1171          1.00   0.02  0.01  0.00  0.97  0.00  0.00  0.00  0.00  0.00
  YSB1171HS02004479       1.00   0.01  0.00  0.00  0.98  0.00  0.00  0.00  0.10  0.00
  HS02004881HS02006253    1.00   0.02  0.00  0.00  0.37  0.04  0.00  0.57  0.25  0.00
  YS02001793JiankangQianchi    1.00   0.00  0.00  0.00  0.65  0.35  0.00  0.00  0.41  0.00
  YS02001757CaochengTiaoxuchi    1.00   0.00  0.07  0.00  0.93  0.00  0.00  0.00  0.00  0.00
  WSF200WS02003060        1.00   0.00  0.01  0.00  0.97  0.02  0.00  0.00  0.54  0.00
  1                       1.00   0.00  0.00  0.00  0.00  1.00  0.00  0.00  0.48  0.00
  
  
  *************************
  Conduit Surcharge Summary
  *************************
  
  ----------------------------------------------------------------------------
                                                           Hours        Hours 
                         --------- Hours Full --------   Above Full   Capacity
  Conduit                Both Ends  Upstream  Dnstream   Normal Flow   Limited
  ----------------------------------------------------------------------------
  WS02006229WS02006228        2.32      2.40      2.32      3.57         2.32
  WS02006256WS02006235        5.23      5.23      6.71      4.15         0.01
  WS02006253WS02006251        0.36      0.36      0.37      0.01         0.01
  WS02006252WS02006251        0.36      0.36      0.61      0.54         0.01
  WS02006251WS02006249        0.36      0.36      0.38      0.25         0.16
  WS02006249WS02006248        0.37      0.37      0.38      1.08         0.01
  WS02006248WS02006247        0.39      0.39      0.42      0.01         0.01
  WS02006247WS02006245        0.42      0.43      0.42      1.74         0.42
  WS02006245WS02006243        0.43      0.43      0.46      0.04         0.05
  WS02006243WS02006242        0.47      0.47      0.75      0.01         0.01
  WS02006242WS02006240        0.71      0.71      0.87      0.51         0.01
  WS02006240WS02006239        0.75      0.75      0.91      0.28         0.16
  WS02006239WS02006238        1.22      1.22      1.51      0.31         0.18
  WS02006238WS02006235        1.50      1.50      1.74      0.01         0.01
  WS02006235WS02006234        1.14      1.14      1.43      5.20         0.01
  WS02006234WS02006232        1.32      1.32      2.12      0.29         0.29
  WS02006232WS02006231        0.77      0.77      2.12      0.34         0.01
  WS02006231WS02006230        0.51      0.51      0.85      5.27         0.01
  WS02006230WS02006229        2.87      3.38      2.87      5.61         2.87
  WS02006228WS02006109        2.34      2.59      2.34      4.72         2.34
[...]
  YS02001765YS02001762        5.84      5.84      5.87      0.01         0.01
  YS02001770YS02001767        5.81      5.81      5.81      0.36         0.65
  YS02001774YS02001770        5.80      5.80      5.86      0.01         0.01
  YS02001779YS02001774        5.67      5.67      5.86      0.01         0.01
  YS02001649YS02001757        5.87      5.87      5.98      0.01         0.01
  YS02001767YS02001765        5.81      5.81      5.84      0.01         0.01
  YS02006561YS02001783        0.71      0.71      0.99      0.01         0.01
  YS02001783YS02001784        0.94      0.99      0.94      1.42         0.93
  YS02001784YS02001785        0.83      0.94      0.83      2.40         0.83
  YS02001788YS02001790        0.78      0.78      1.62      0.01         0.01
  YS02001790YS02001791        1.61      1.62      1.80      0.84         0.81
  YS02001791YS02001793        1.80      1.80      2.19      0.01         0.01
  YS02001910YS02001907        1.06      1.06      1.77      0.01         0.01
  YS02001786YS02001788        0.78      0.83      0.78      2.00         0.78
  YS02001915YS02001910        0.82      0.82      1.06      0.01         0.01
  YS02001918YS02001915        0.66      0.66      0.82      0.01         0.01
  YS02001923YS02001920        0.45      0.45      0.69      0.01         0.01
  YS02001920YS02001918        0.66      0.66      0.69      0.01         0.01
  YS02001629YS02163301        5.80      5.80      5.81      0.01         0.01
  YS02001619YS02001622        5.47      5.47      5.51      0.01         0.01
  YS02001622YS02001625        5.51      5.51      5.76      0.01         0.01
  YS02001625YS02001629        5.48      5.48      5.76      0.01         0.01
  YS02163301YS02001633        5.81      5.81      5.84      0.01         0.01
  YS02163601YS02164001        5.84      5.84      5.87      0.01         0.01
  YS02164001YS02001641        5.84      5.84      5.85      0.01         0.03
  YS02001641YS02001644        5.85      5.85      5.85      1.53         1.70
  YS02001647YS02001649        5.75      5.75      5.87      0.01         0.01
  YS02006553YS02006556        1.31      1.31      1.85      0.01         0.01
  YS02006556YS02006558        1.53      1.53      1.92      0.01         0.01
  YS02001907YS02006553        2.41      2.41      2.63      0.01         0.01
  YS02006558YS02006561        0.80      1.26      0.80      2.23         0.80
  YS02001633YS02163601        5.83      5.83      5.87      0.01         0.01
  YS02001644YS02001647        5.75      5.75      5.85      0.01         0.01
  YS02001745YS02001748        0.01      0.01      5.31      0.01         0.01
  YS02001748YS02001751        5.36      5.36      5.48      0.01         0.01
  YS02001751YS02001754        5.48      5.48      5.70      0.01         0.01
  YS02001754YS02001757        5.74      5.74      5.98      0.01         0.01
  YS02001882YS02001884        0.84      0.84      0.87      0.01         0.01
  YS02001884YS02001887        0.94      0.94      0.97      0.01         0.01
  YS02001890YS02001895        0.81      0.81      1.08      0.01         0.01
  YS02001895YS02001898        0.80      0.80      0.81      0.01         0.01
  YS02001898YS02001901        0.82      0.82      0.92      0.01         0.01
  YS02001901YS02001904        0.89      0.89      0.92      0.01         0.01
  YS02001904YS02001907        0.89      0.89      1.88      0.01         0.01
  YS02001887YS02001890        1.00      1.00      1.04      0.01         0.01
  YS02001652YS02001649        5.76      5.76      5.87      0.01         0.01
  YS02001655YS02001652        5.50      5.50      5.73      0.01         0.01
  YS02001658YS02001655        5.33      5.33      5.50      0.01         0.01
  YS02001661YS02001658        0.14      0.14      5.33      0.01         0.01
  YS02001664YS02001661        0.01      0.01      1.16      0.01         0.01
  HS02004881HS02006253        0.01      0.01      0.23      0.01         0.01
  YS02001793JiankangQianchi        2.09      2.09      3.97      0.01         0.01
  YS02001757CaochengTiaoxuchi        5.21      5.21      5.98      0.01         0.01
  
  
  ***************
  Pumping Summary
  ***************
  
  ---------------------------------------------------------------------------------------------------------
                                                  Min       Avg       Max     Total     Power    % Time Off
                        Percent   Number of      Flow      Flow      Flow    Volume     Usage    Pump Curve
  Pump                 Utilized   Start-Ups       LPS       LPS       LPS  10^6 ltr     Kw-hr    Low   High
  ---------------------------------------------------------------------------------------------------------
  CC-Pump-1               38.29           6      0.00    125.41    200.00     1.260      0.96    0.0    0.0
  CC-Pump-2               14.90           3      0.00    106.87    200.00     0.480      0.55    0.0    0.0
  JK-Pump-1               59.57           5      0.00    217.42    300.00     3.437     54.05    0.0    0.0
  JK-Pump-2               55.32           5      0.00    428.82    683.00     6.290     94.65    0.0   95.6
  XR-Pump-1              100.00           1      0.00     95.00     95.00     2.679     27.15    0.0    0.0
  XR-Pump-2               95.74           3      0.00     92.12     95.00     2.394     21.17    0.0    0.0
  XR-Pump-3               95.74           3      0.00     92.12     95.00     2.394     21.17    0.0    0.0
  XR-Pump-4               95.74           3      0.00     92.12     95.00     2.394     21.17    0.0    0.0
  
  
  ***************************
  Link Pollutant Load Summary
  ***************************
  
  ------------------------------------------------------------------------------------------
                                 COD            SS            TN            TP         NH4-N
  Link                            kg            kg            kg            kg            kg
  ------------------------------------------------------------------------------------------
  WS02003066WSF200           649.797      1198.334        18.014         1.625         9.607
  WS02006287WS02006284       268.046       498.190         9.345         0.943         5.213
  WS02006284WS02006280       268.535       498.979         9.392         0.949         5.243
  WS02006280WS02006229       268.507       498.927         9.390         0.948         5.241
  WS02006229WS02006228       644.924      1189.744        17.592         1.570         9.345
  WS02006256WS02006235       200.761       367.028         4.449         0.346         2.251
  WS02006253WS02006251        50.812        98.020         1.114         0.082         0.550
  WS02006252WS02006251       146.823       265.272         3.125         0.230         1.545
  WS02006251WS02006249       190.668       350.788         4.104         0.303         2.031
  WS02006249WS02006248       185.536       341.489         3.988         0.294         1.973
  WS02006248WS02006247       185.432       341.323         3.988         0.294         1.973
  WS02006247WS02006245       184.888       340.354         3.975         0.293         1.966
  WS02006245WS02006243       184.108       339.008         3.954         0.292         1.955
  WS02006243WS02006242       183.969       338.779         3.953         0.292         1.955
  WS02006242WS02006240       184.451       339.731         3.962         0.292         1.960
  WS02006240WS02006239       186.393       343.307         4.008         0.296         1.982
  WS02006239WS02006238       188.908       347.543         4.085         0.303         2.025
  WS02006238WS02006235       190.219       349.578         4.126         0.307         2.047
  WS02006235WS02006234       380.352       697.779         8.305         0.630         4.158
  WS02006234WS02006232       379.799       696.767         8.298         0.630         4.155
  WS02006232WS02006231       378.924       695.187         8.278         0.628         4.145
  WS02006231WS02006230       378.197       693.904         8.261         0.627         4.136
  WS02006230WS02006229       377.414       692.549         8.240         0.625         4.126
  WS02006228WS02006109       643.759      1187.669        17.554         1.566         9.324
  WS02006116WS02004401       654.705      1206.944        18.189         1.642         9.705
  WS02006115WS02006116       655.675      1208.605        18.242         1.648         9.737
  WS02006113WS02006111       649.104      1195.776        18.230         1.653         9.752
  WS02006112WS02006115       656.681      1210.309        18.300         1.655         9.772
  WS02006111WS02006112       648.622      1194.954        18.204         1.650         9.737
  WS02006110WS02006113       649.728      1196.854        18.261         1.657         9.771
  WS02006109WS02006110       651.035      1199.094        18.328         1.664         9.810
  WS02004411WS02004412       651.422      1201.133        18.091         1.633         9.652
  WS02004401WS02004402       653.787      1205.386        18.138         1.636         9.675
  WS02004413WS02003067       649.985      1198.675        18.020         1.625         9.610
  WS02004412WS02004413       651.002      1200.401        18.074         1.631         9.643
  WS02004410WS02004411       651.673      1201.574        18.099         1.634         9.657
  WS02004409WS02004410       651.977      1202.103        18.112         1.635         9.664
  WS02004407WS02004409       652.090      1202.310        18.113         1.635         9.665
  WS02004406WS02004407       652.026      1202.218        18.106         1.634         9.660
  WS02004405WS02004406       652.994      1203.846        18.168         1.642         9.698
  WS02004404WS02004405       653.152      1204.171        18.155         1.640         9.688
  WS02004403WS02004404       652.432      1203.067        18.067         1.628         9.633
  WS02004402WS02004403       653.072      1204.157        18.101         1.632         9.653
  WS02004139WS02001211      1393.110      2295.339       115.814        14.182        71.520
  WS02004138WS02004139      1399.347      2305.643       116.315        14.243        71.829
  WS02003067WS02003066       649.925      1198.559        18.019         1.625         9.610
  WS02001213WS02003059      1426.784      2348.525       119.252        14.615        73.678
  WS02001212WS02001213      1435.709      2363.179       119.999        14.707        74.140
  WS02001211WS02001212      1437.491      2366.078       120.155        14.726        74.237
  WS02003072WS02003073      2177.856      3708.231       147.200        17.485        89.504
  WS02003069WS02003072      2182.614      3715.989       147.604        17.535        89.754
  WS02003060WS02003069      2185.244      3720.386       147.798        17.558        89.873
  WS02003059WS02003060      1424.244      2344.266       119.066        14.593        73.564
  HS02004901HS02004770        10.270        19.477         0.195         0.015         0.091
  HS02004876HS02004881        37.317        72.579         0.843         0.062         0.416
  HS02004870HS02004876        28.159        54.627         0.678         0.051         0.338
  HS02004842HS02004848         5.467        10.276         0.115         0.008         0.053
  HS02004837HS02004842        10.072        17.581         0.584         0.067         0.347
  HS02004830HS02004837        65.638       112.702         4.556         0.546         2.785
  HS02004824HS02004830        66.389       113.905         4.628         0.555         2.829
  HS02004817HS02004824        88.205       156.974         5.083         0.584         3.051
  HS02004770HS02004777        39.295        75.465         0.819         0.055         0.377
  HS02004799HS02004480       131.407       245.365         3.680         0.335         1.932
  HS02004792HS02004799       119.083       220.658         3.497         0.327         1.853
  HS02004788HS02004792        68.395       126.855         2.388         0.235         1.309
  HS02004785HS02004788        40.733        77.760         0.969         0.074         0.471
  HS02004777HS02004785        40.059        76.666         0.909         0.067         0.434
  HS02004480HS02004478       165.946       312.585         4.243         0.374         2.195
  HS02004479HS02004480        38.142        72.969         0.884         0.079         0.462
  HS02004862HS02004870        21.015        40.116         0.536         0.043         0.270
  HS02004848HS02004852         8.057        15.279         0.167         0.011         0.077
  HS02004856HS02004862        14.071        27.340         0.284         0.019         0.133
  HS02004852HS02004856         8.064        15.290         0.167         0.011         0.077
  HS02004802HS02004478       102.882       186.882         5.162         0.575         3.055
  HS02004478WS02006287       268.246       498.526         9.362         0.945         5.224
  HS02004817HS02004807        86.886       154.858         4.956         0.568         2.972
  HS02004807HS02004802       103.110       187.238         5.194         0.580         3.075
  YS02001759YS02001757       292.338       529.203         5.908         0.409         2.891
  YS02001762YS02001759       176.959       323.643         3.708         0.260         1.830
  YS02001765YS02001762       177.696       325.638         3.741         0.263         1.849
  YS02001770YS02001767       179.282       330.527         3.597         0.239         1.747
  YS02001774YS02001770       221.902       424.254         4.295         0.285         2.077
  YS02001779YS02001774       221.475       423.361         4.393         0.300         2.144
  YS02001649YS02001757       364.350       654.053         7.419         0.509         3.580
  YS02001767YS02001765       179.060       328.789         3.781         0.266         1.870
  YS02006561YS02001783       938.363      1720.672        19.935         1.500         9.958
  YS02001783YS02001784       938.243      1720.484        19.931         1.499         9.956
  YS02001784YS02001785       945.583      1732.250        20.644         1.589        10.402
  YS02001788YS02001790       946.211      1733.278        20.717         1.598        10.448
  YS02001790YS02001791       947.250      1734.971        20.818         1.611        10.511
  YS02001791YS02001793       947.133      1734.779        20.812         1.610        10.508
  YS02001910YS02001907       330.933       600.468         8.332         0.655         4.316
  YS02001786YS02001788       945.795      1732.610        20.672         1.592        10.420
  YS02001915YS02001910       331.012       600.589         8.288         0.648         4.287
  YS02001918YS02001915       162.150       281.920         4.790         0.448         2.615
  YS02001923YS02001920       139.699       244.944         2.802         0.203         1.380
  YS02001926YS02001923       138.319       242.643         2.707         0.192         1.321
  YS02001929YS02001926       136.415       239.416         2.584         0.177         1.246
  YS02001920YS02001918       160.314       278.153         4.728         0.443         2.581
  YS02001629YS02163301       103.530       183.447         2.171         0.140         1.012
  YS02001619YS02001622       146.390       262.923         3.031         0.197         1.414
  YS02001622YS02001625       145.250       261.126         3.003         0.195         1.401
  YS02001625YS02001629       104.606       185.226         2.195         0.142         1.023
  YS02163301YS02001633       103.273       183.016         2.164         0.140         1.010
  YS02163601YS02164001       362.092       646.300         7.117         0.503         3.404
  YS02164001YS02001641       361.633       645.531         7.098         0.501         3.393
  YS02001641YS02001644       361.881       645.876         7.097         0.500         3.392
  YS02001647YS02001649       425.876       771.157         8.587         0.592         4.121
  YS02006553YS02006556       659.827      1204.218        14.337         1.106         7.239
  YS02006556YS02006558       659.780      1204.121        14.305         1.102         7.218
  YSB6556YSB1171              21.950        42.194         0.451         0.038         0.229
  YS02001907YS02006553       659.918      1204.406        14.350         1.108         7.248
  YS02006558YS02006561       938.357      1720.653        19.935         1.500         9.958
  YS02001633YS02163601       362.775       647.354         7.096         0.498         3.387
  YS02001644YS02001647       432.302       782.586         8.683         0.599         4.164
  YS02001745YS02001748       210.906       387.813         4.806         0.340         2.409
  YS02001748YS02001751       208.692       383.640         4.839         0.348         2.440
  YS02001751YS02001754       207.715       382.043         4.820         0.347         2.431
  YS02001754YS02001757       208.481       383.198         4.984         0.370         2.537
  YS02001882YS02001884         2.958         5.110         0.059         0.005         0.030
  YS02001884YS02001887         6.965        12.334         0.136         0.011         0.068
  YS02001890YS02001895       389.488       720.685         7.190         0.539         3.508
  YS02001895YS02001898       389.355       720.525         7.184         0.539         3.505
  YS02001898YS02001901       389.204       720.273         7.180         0.539         3.503
  YS02001901YS02001904       389.079       720.108         7.188         0.540         3.509
  YS02001904YS02001907       389.332       720.506         7.242         0.547         3.543
  YS02001887YS02001890       390.274       721.854         7.244         0.546         3.541
  YS02001652YS02001649       158.366       289.282         3.234         0.232         1.515
  YS02001655YS02001652       159.268       290.711         3.258         0.234         1.527
  YS02001658YS02001655       159.110       290.434         3.179         0.223         1.474
  YS02001661YS02001658       163.687       298.538         3.273         0.229         1.517
  YS02001664YS02001661       178.243       322.911         3.593         0.251         1.664
  YSB1154YSB6556              21.532        41.527         0.402         0.032         0.198
  YSB1174YSB1171              14.653        28.289         0.298         0.024         0.149
  YSB1171HS02004479           38.100        72.903         0.887         0.079         0.465
  HS02004881HS02006253        42.049        81.989         0.930         0.068         0.458
  YS02001793JiankangQianchi       947.700      1735.706        20.847         1.614        10.529
  YS02001757CaochengTiaoxuchi       498.986       896.524        10.657         0.774         5.262
  WSF200WS02003060           650.120      1198.872        18.039         1.628         9.623
  1                         2183.001      3716.101       147.783        17.560        89.872
  CC-Pump-1                  105.735       190.945         2.248         0.165         1.111
  CC-Pump-2                   40.943        74.087         0.868         0.064         0.429
  JK-Pump-1                  216.746       398.592         4.704         0.361         2.367
  JK-Pump-2                  466.909       863.675         9.961         0.759         4.994
  XR-Pump-1                  394.212       647.467        33.305         4.088        20.596
  XR-Pump-2                  336.300       554.780        27.777         3.398        17.144
  XR-Pump-3                  336.300       554.780        27.777         3.398        17.144
  XR-Pump-4                  336.300       554.780        27.777         3.398        17.144
  

  Analysis begun on:  Thu Jul 15 21:13:52 2021
  Analysis ended on:  Thu Jul 15 21:13:55 2021
  Total elapsed time: 00:00:03