
  EPA STORM WATER MANAGEMENT MODEL - VERSION 5.1 (Build 5.3.0.dev0)
  --------------------------------------------------------------

  WARNING 04: minimum elevation drop used for Conduit WS02004404WS02004405
  WARNING 03: negative offset ignored for Link YS02001904YS02001907
  
  *********************************************************
  NOTE: The summary statistics displayed in this report are
  based on results found at every computational time step,  
  not just on results from each reporting time step.
  *********************************************************
  
  ****************
  Analysis Options
  ****************
  Flow Units ............... LPS
  Process Models:
    Rainfall/Runoff ........ YES
    RDII ................... NO
    Snowmelt ............... NO
    Groundwater ............ NO
    Flow Routing ........... YES
    Ponding Allowed ........ NO
    Water Quality .......... YES
  Infiltration Method ...... HORTON
  Flow Routing Method ...... DYNWAVE
  Surcharge Method ......... EXTRAN
  Starting Date ............ 08/28/2015 08:00:00
  Ending Date .............. 08/28/2015 15:50:00
  Antecedent Dry Days ...... 8.0
  Report Time Step ......... 00:01:00
  Wet Time Step ............ 00:01:00
  Dry Time Step ............ 00:01:00
  Routing Time Step ........ 5.00 sec
  Variable Time Step ....... YES
  Maximum Trials ........... 8
  Number of Threads ........ 4
  Head Tolerance ........... 0.001500 m
  
  
  **************************        Volume         Depth
  Runoff Quantity Continuity     hectare-m            mm
  **************************     ---------       -------
  Total Precipitation ......         6.144        13.452
  Evaporation Loss .........         0.000         0.000
  Infiltration Loss ........         1.064         2.328
  Surface Runoff ...........         4.147         9.079
  Final Storage ............         0.935         2.047
  Continuity Error (%) .....        -0.020
  
  
  **************************           COD            SS            TN            TP         NH4-N
  Runoff Quality Continuity             kg            kg            kg            kg            kg
  **************************    ----------    ----------    ----------    ----------    ----------
  Initial Buildup ..........     41378.656     70582.865      1804.177       168.684      1032.807
  Surface Buildup ..........        21.799        40.924         2.400         0.218         1.395
  Wet Deposition ...........         0.000         0.000         0.000         0.000         0.000
  Sweeping Removal .........         0.000         0.000         0.000         0.000         0.000
  Infiltration Loss ........        97.311       184.943         1.849         0.130         0.881
  BMP Removal ..............         0.000         0.000         0.000         0.000         0.000
  Surface Runoff ...........      3769.819      7064.251        72.781         4.964        34.599
  Remaining Buildup ........     37531.916     63371.884      1731.919       163.806       998.709
  Continuity Error (%) .....         0.003         0.004         0.002         0.001         0.001
  
  
  **************************        Volume        Volume
  Flow Routing Continuity        hectare-m      10^6 ltr
  **************************     ---------     ---------
  Dry Weather Inflow .......         0.616         6.165
  Wet Weather Inflow .......         4.145        41.452
  Groundwater Inflow .......         0.000         0.000
  RDII Inflow ..............         0.000         0.000
  External Inflow ..........         0.102         1.024
  External Outflow .........         1.849        18.486
  Flooding Loss ............         2.584        25.838
  Evaporation Loss .........         0.000         0.000
  Exfiltration Loss ........         0.000         0.000
  Initial Stored Volume ....         0.076         0.761
  Final Stored Volume ......         0.630         6.299
  Continuity Error (%) .....        -2.473
  
  
  **************************           COD            SS            TN            TP         NH4-N
  Quality Routing Continuity            kg            kg            kg            kg            kg
  **************************    ----------    ----------    ----------    ----------    ----------
  Dry Weather Inflow .......      1541.201      2465.922       147.955        18.494        92.472
  Wet Weather Inflow .......      3769.043      7062.935        72.764         4.963        34.591
  Groundwater Inflow .......         0.000         0.000         0.000         0.000         0.000
  RDII Inflow ..............         0.000         0.000         0.000         0.000         0.000
  External Inflow ..........       183.418       293.469        17.608         2.201        11.005
  External Outflow .........      2257.681      3897.291       146.123        17.241        88.520
  Flooding Loss ............      2545.914      4733.760        64.386         5.543        33.677
  Exfiltration Loss ........         0.000         0.000         0.000         0.000         0.000
  Mass Reacted .............         0.000         0.000         0.000         0.000         0.000
  Initial Stored Mass ......         0.000         0.000         0.000         0.000         0.000
  Final Stored Mass ........       567.117       982.730        24.770         2.636        14.319
  Continuity Error (%) .....         2.238         2.123         1.279         0.930         1.125
  
  
  *************************
  Highest Continuity Errors
  *************************
  Node HS02004842 (13.41%)
  Node JK-storage (-11.54%)
  Node YS02001884 (10.69%)
  Node HS02004817 (2.53%)
  Node YSB1171 (2.46%)
  
  
  ***************************
  Time-Step Critical Elements
  ***************************
  Link WS02006252WS02006251 (51.91%)
  Link WS02006280WS02006229 (11.90%)
  Link WS02006238WS02006235 (7.68%)
  Link YS02001793JiankangQianchi (6.87%)
  Link YS02006556YS02006558 (5.20%)
  
  
  ********************************
  Highest Flow Instability Indexes
  ********************************
  Link WS02006113WS02006111 (45)
  Link YS02163601YS02164001 (30)
  Link YS02163301YS02001633 (30)
  Link YS02001629YS02163301 (30)
  Link YS02001619YS02001622 (29)
  
  
  *************************
  Routing Time Step Summary
  *************************
  Minimum Time Step           :     0.50 sec
  Average Time Step           :     1.44 sec
  Maximum Time Step           :     5.00 sec
  Percent in Steady State     :    -0.00
  Average Iterations per Step :     3.78
  Percent Not Converging      :    13.65
  
  
  ***************************
  Subcatchment Runoff Summary
  ***************************
  
  ------------------------------------------------------------------------------------------------------------------------------
                            Total      Total      Total      Total     Imperv       Perv      Total       Total     Peak  Runoff
                           Precip      Runon       Evap      Infil     Runoff     Runoff     Runoff      Runoff   Runoff   Coeff
  Subcatchment                 mm         mm         mm         mm         mm         mm         mm    10^6 ltr      LPS
  ------------------------------------------------------------------------------------------------------------------------------
  sub0                      13.45       0.00       0.00       0.63      12.47       0.31      12.77        0.01     3.75   0.950
  sub1                      13.45       0.00       0.00       1.12      11.88       0.36      12.24        0.08    25.66   0.910
  sub2                      13.45       0.00       0.00       4.44       8.39       0.53       8.92        0.08    25.29   0.663
  sub3                      13.45       0.00       0.00       4.56       8.35       0.42       8.77        0.20    55.75   0.652
  sub4                      13.45       0.00       0.00       1.22      11.71       0.26      11.97        0.25    65.52   0.890
  sub5                      13.45       0.00       0.00       0.68      12.41       0.26      12.67        0.14    44.76   0.942
  sub7                      13.45       0.00       0.00       0.86      12.18       0.35      12.53        0.04    14.26   0.931
  sub8                      13.45       0.00       0.00       0.87      12.17       0.34      12.50        0.08    26.26   0.930
  sub9                      13.45       0.00       0.00       0.88      12.17       0.33      12.50        0.06    19.64   0.929
  sub10                     13.45       0.00       0.00       0.78      12.29       0.29      12.58        0.14    44.00   0.935
  sub11                     13.45       0.00       0.00       0.77      12.30       0.31      12.61        0.15    48.45   0.938
  sub12                     13.45       0.00       0.00       1.25      11.66       0.50      12.16        0.11    38.10   0.904
  sub14                     13.45       0.00       0.00       0.88      12.16       0.33      12.49        0.12    38.67   0.929
  sub15                     13.45       0.00       0.00       3.37       9.35       0.66      10.01        0.17    57.01   0.744
  sub16                     13.45       0.00       0.00       3.56       8.97       0.88       9.85        0.10    37.63   0.732
  sub17                     13.45       0.00       0.00       3.47       9.10       0.84       9.94        0.09    30.67   0.739
  sub22                     13.45       0.00       0.00       4.98       7.63       0.81       8.43        0.53   184.54   0.627
  sub23                     13.45       0.00       0.00       4.17       8.43       0.81       9.24        0.44   154.22   0.687
  sub60                     13.45       0.00       0.00       1.53       9.85       0.09       9.93        3.01   438.14   0.738
  sub61                     13.45       0.00       0.00       2.16       9.95       0.12      10.07        3.11   536.45   0.749
  sub62                     13.45       0.00       0.00       0.98      10.84       0.10      10.94        3.36   552.35   0.813
  sub63                     13.45       0.00       0.00       3.77       8.69       0.14       8.83        2.67   492.63   0.656
  sub64                     13.45       0.00       0.00       1.93       9.45       0.09       9.54        2.90   416.72   0.709
  sub65                     13.45       0.00       0.00       1.67       9.61       0.08       9.70        2.98   423.09   0.721
  sub66                     13.45       0.00       0.00       3.81       8.10       0.09       8.18        2.51   380.66   0.608
  sub67                     13.45       0.00       0.00       0.95      11.38       0.13      11.51        3.55   679.52   0.856
  sub68                     13.45       0.00       0.00       1.75      10.45       0.13      10.59        3.26   586.26   0.787
  sub69                     13.45       0.00       0.00       1.83      10.79       0.19      10.98        2.57   544.72   0.816
  sub70                     13.45      11.20       0.00       7.51      14.65       0.88      15.52        3.55   494.81   0.630
  sub71                     13.45       0.00       0.00       0.99      10.58       0.09      10.67        2.52   389.24   0.793
  sub72                     13.45       0.00       0.00       0.89       8.56       0.05       8.61        1.75   189.18   0.640
  1                         13.45      15.11       0.00       1.37      16.56       4.63      21.19        4.98   484.42   0.742
  2                         13.45       0.00       0.00       3.02       3.21       1.96       5.17        2.07   340.45   0.384
  
  
  ****************************
  Subcatchment Washoff Summary
  ****************************
  
  ------------------------------------------------------------------------------------------
                                 COD            SS            TN            TP         NH4-N
  Subcatchment                    kg            kg            kg            kg            kg
  ------------------------------------------------------------------------------------------
  sub0                         2.670         5.197         0.046         0.004         0.022
  sub1                        11.241        22.423         0.210         0.015         0.101
  sub2                         6.894        13.384         0.145         0.010         0.067
  sub3                        16.924        32.573         0.350         0.024         0.161
  sub4                        25.772        51.904         0.510         0.031         0.245
  sub5                        25.778        50.682         0.460         0.035         0.223
  sub7                         5.751        11.638         0.108         0.007         0.052
  sub8                         8.581        17.755         0.171         0.010         0.082
  sub9                         7.353        15.005         0.142         0.009         0.068
  sub10                       21.202        42.223         0.389         0.028         0.188
  sub11                       20.657        41.614         0.386         0.026         0.187
  sub12                       17.724        35.094         0.321         0.024         0.155
  sub14                       15.732        31.800         0.298         0.020         0.144
  sub15                       20.231        39.321         0.389         0.028         0.182
  sub16                       13.129        25.518         0.249         0.019         0.117
  sub17                       12.049        23.208         0.222         0.017         0.105
  sub22                       62.582       119.432         1.186         0.090         0.554
  sub23                       36.683        72.439         0.776         0.051         0.357
  sub60                      243.520       456.962         4.842         0.298         2.321
  sub61                      302.151       564.434         5.627         0.386         2.710
  sub62                      313.722       596.076         6.119         0.388         2.938
  sub63                      223.275       410.850         4.468         0.314         2.075
  sub64                      305.877       553.773         5.626         0.410         2.687
  sub65                      313.037       569.066         5.795         0.415         2.772
  sub66                      176.068       321.340         3.608         0.236         1.687
  sub67                      466.222       877.505         8.365         0.616         4.045
  sub68                      332.037       626.413         6.347         0.429         3.034
  sub69                      298.258       568.561         5.590         0.393         2.674
  sub70                      502.897       962.303        10.037         0.699         4.710
  sub71                      206.745       396.330         4.242         0.246         2.030
  sub72                      164.385       293.107         3.069         0.210         1.476
  1                          349.075       671.606         7.102         0.495         3.297
  2                           42.749        75.577         1.214         0.073         0.518
  ------------------------------------------------------------------------------------------
  System                    4570.974      8595.115        88.408         6.057        41.983
  
  
  ******************
  Node Depth Summary
  ******************
  
  ---------------------------------------------------------------------------------
                                 Average  Maximum  Maximum  Time of Max    Reported
                                   Depth    Depth      HGL   Occurrence   Max Depth
  Node                 Type       Meters   Meters   Meters  days hr:min      Meters
  ---------------------------------------------------------------------------------
  WS02001211           JUNCTION     0.77     0.85     5.69     0  03:07        0.85
  WS02001212           JUNCTION     0.47     0.58     5.64     0  03:06        0.58
  WS02001213           JUNCTION     0.71     0.85     5.62     0  03:05        0.85
  WS02003069           JUNCTION     0.50     0.72     5.30     0  03:05        0.72
  WS02003072           JUNCTION     0.56     0.76     5.13     0  03:06        0.76
  WS02003073           JUNCTION     0.34     0.48     4.54     0  03:06        0.48
  WS02003060           JUNCTION     0.44     0.63     5.57     0  03:05        0.63
  WS02003066           JUNCTION     0.23     0.39     5.94     0  03:04        0.39
  WS02003059           JUNCTION     0.76     0.91     5.60     0  03:05        0.91
  WS02003067           JUNCTION     0.57     0.82     6.14     0  03:03        0.82
  WS02004401           JUNCTION     0.68     1.24     7.24     0  03:02        1.23
  WS02004402           JUNCTION     0.71     1.23     7.19     0  03:02        1.22
  WS02004403           JUNCTION     0.73     1.20     7.13     0  03:02        1.19
  WS02004404           JUNCTION     0.80     1.25     7.10     0  03:02        1.23
  WS02004406           JUNCTION     0.81     1.16     6.99     0  03:02        1.16
  WS02004409           JUNCTION     0.49     0.96     6.73     0  03:03        0.96
  WS02004410           JUNCTION     0.51     0.95     6.67     0  03:03        0.95
  WS02004411           JUNCTION     0.53     0.93     6.61     0  03:03        0.93
  WS02004412           JUNCTION     0.54     0.90     6.54     0  03:03        0.90
  WS02004413           JUNCTION     0.70     1.02     6.49     0  03:03        1.02
  WS02004405           JUNCTION     0.80     1.22     7.07     0  03:02        1.22
  WS02006109           JUNCTION     0.78     1.66     8.28     0  03:02        1.64
  WS02006110           JUNCTION     0.76     1.45     8.03     0  03:02        1.44
  WS02006111           JUNCTION     0.24     0.89     7.59     0  03:02        0.88
  WS02006112           JUNCTION     0.86     1.56     7.45     0  03:02        1.55
  WS02006113           JUNCTION     0.35     0.92     7.82     0  03:02        0.92
  WS02006115           JUNCTION     0.58     1.22     7.36     0  03:02        1.21
  WS02006116           JUNCTION     0.66     1.27     7.31     0  03:02        1.25
  WS02006230           JUNCTION     0.77     1.88     8.62     0  03:02        1.87
  WS02006231           JUNCTION     0.52     1.52     8.64     0  03:02        1.51
  WS02006232           JUNCTION     0.65     1.62     8.66     0  03:02        1.61
  WS02006234           JUNCTION     0.57     1.53     8.69     0  03:02        1.52
  WS02006235           JUNCTION     0.61     1.54     8.71     0  03:02        1.52
  WS02006238           JUNCTION     0.63     1.56     8.70     0  03:02        1.55
  WS02006240           JUNCTION     0.52     1.40     8.70     0  03:02        1.39
  WS02006242           JUNCTION     0.56     1.43     8.70     0  03:02        1.42
  WS02006243           JUNCTION     0.44     1.28     8.70     0  05:02        1.27
  WS02006245           JUNCTION     0.41     1.29     8.78     0  05:02        1.20
  WS02006247           JUNCTION     0.42     1.26     8.76     0  05:02        1.19
  WS02006248           JUNCTION     0.36     1.10     8.69     0  02:56        1.10
  WS02006249           JUNCTION     0.38     1.09     8.69     0  02:55        1.09
  WS02006239           JUNCTION     0.58     1.49     8.70     0  03:02        1.48
  WS02006251           JUNCTION     0.35     1.18     8.85     0  02:55        1.09
  WS02006252           JUNCTION     0.22     0.63     8.87     0  02:55        0.59
  WS02006253           JUNCTION     0.38     1.26     8.91     0  02:55        1.13
  WS02006256           JUNCTION     1.74     2.35     9.28     0  00:38        2.35
  WS02004138           JUNCTION     0.19     0.20     7.45     0  00:00        0.19
  WS02004139           JUNCTION     0.71     0.79     5.70     0  03:07        0.79
  WS02004407           JUNCTION     0.22     0.40     6.71     0  03:03        0.40
  WS02006228           JUNCTION     0.79     1.83     8.48     0  03:02        1.82
  WS02006229           JUNCTION     0.77     1.90     8.60     0  03:02        1.89
  WS02006280           JUNCTION     0.08     0.30     8.57     0  03:05        0.30
  WS02006284           JUNCTION     0.38     0.65     9.04     0  03:02        0.64
  WS02006287           JUNCTION     0.11     0.39     9.34     0  03:02        0.39
  WSF200               JUNCTION     0.22     0.44     5.67     0  03:04        0.44
  HS02004901           JUNCTION     0.13     0.38    10.20     0  03:01        0.37
  HS02004881           JUNCTION     0.01     0.05     9.08     0  03:01        0.05
  HS02004876           JUNCTION     0.05     0.16     9.19     0  03:01        0.16
  HS02004870           JUNCTION     0.02     0.09     9.38     0  03:01        0.09
  HS02004862           JUNCTION     0.02     0.11     9.49     0  03:01        0.11
  HS02004856           JUNCTION     0.08     0.15     9.58     0  03:01        0.15
  HS02004852           JUNCTION     0.01     0.07     9.59     0  03:02        0.07
  HS02004848           JUNCTION     0.01     0.07     9.67     0  03:01        0.07
  HS02004842           JUNCTION     0.34     0.40     9.67     0  03:01        0.40
  HS02004837           JUNCTION     0.03     0.09     9.67     0  03:01        0.09
  HS02004830           JUNCTION     0.04     0.10     9.57     0  03:02        0.10
  HS02004824           JUNCTION     0.03     0.13     9.53     0  03:02        0.13
  HS02004817           JUNCTION     0.45     0.69     9.54     0  03:02        0.69
  HS02004807           JUNCTION     0.13     0.36     9.53     0  03:02        0.36
  HS02004802           JUNCTION     0.17     0.39     9.52     0  03:02        0.39
  HS02004799           JUNCTION     0.13     0.46     9.68     0  03:01        0.46
  HS02004792           JUNCTION     0.04     0.22     9.74     0  03:01        0.21
  HS02004788           JUNCTION     0.03     0.16    10.05     0  03:02        0.16
  HS02004785           JUNCTION     0.05     0.25    10.15     0  03:02        0.25
  HS02004777           JUNCTION     0.16     0.39    10.19     0  03:01        0.39
  HS02004770           JUNCTION     0.13     0.37    10.20     0  03:01        0.36
  HS02004480           JUNCTION     0.09     0.38     9.62     0  03:01        0.38
  HS02004479           JUNCTION     0.13     0.42     9.62     0  03:01        0.42
  HS02004478           JUNCTION     0.07     0.28     9.50     0  03:01        0.28
  YS02001745           JUNCTION     0.72     0.95     8.47     0  03:01        0.95
  YS02001748           JUNCTION     1.11     1.57     8.65     0  02:32        1.39
  YS02001751           JUNCTION     1.29     1.59     8.47     0  03:18        1.58
  YS02001754           JUNCTION     1.54     1.85     8.46     0  03:18        1.84
  YS02001762           JUNCTION     1.73     2.05     8.45     0  03:18        2.04
  YS02001765           JUNCTION     1.68     2.00     8.45     0  02:56        1.99
  YS02001767           JUNCTION     1.65     1.96     8.45     0  02:56        1.94
  YS02001770           JUNCTION     1.64     1.94     8.44     0  02:56        1.93
  YS02001774           JUNCTION     1.71     1.99     8.41     0  02:56        1.98
  YS02001779           JUNCTION     1.46     1.68     8.37     0  02:41        1.68
  YS02001882           JUNCTION     0.59     1.64     8.35     0  03:00        1.63
  YS02001884           JUNCTION     0.69     1.74     8.35     0  03:00        1.73
  YS02001759           JUNCTION     1.77     2.09     8.45     0  03:19        2.08
  YS02001887           JUNCTION     0.77     1.82     8.35     0  03:00        1.80
  YS02001890           JUNCTION     0.80     1.81     8.32     0  02:48        1.81
  YS02001898           JUNCTION     0.56     1.56     8.30     0  02:54        1.56
  YS02001901           JUNCTION     0.68     1.68     8.29     0  02:52        1.67
  YS02001904           JUNCTION     0.66     1.64     8.27     0  02:48        1.63
  YS02001907           JUNCTION     0.99     1.96     8.25     0  02:48        1.96
  YS02001910           JUNCTION     0.78     1.78     8.29     0  02:49        1.77
  YS02001915           JUNCTION     0.58     1.60     8.32     0  02:49        1.59
  YS02001918           JUNCTION     0.32     1.29     8.36     0  02:49        1.27
  YS02001619           JUNCTION     1.25     1.58     8.51     0  02:32        1.48
  YS02001629           JUNCTION     1.59     1.85     8.40     0  02:32        1.84
  YS02001641           JUNCTION     1.69     1.94     8.37     0  04:07        1.93
  YS02001644           JUNCTION     1.69     1.92     8.35     0  02:39        1.92
  YS02001652           JUNCTION     1.55     2.16     8.76     0  02:43        1.86
  YS02001655           JUNCTION     1.31     2.20     9.05     0  02:25        1.64
  YS02001920           JUNCTION     0.42     1.38     8.39     0  02:49        1.34
  YS02001923           JUNCTION     0.26     1.14     8.40     0  02:49        1.10
  YS02001926           JUNCTION     0.30     0.96     8.40     0  02:49        0.91
  YS02001929           JUNCTION     0.18     0.71     8.41     0  02:49        0.68
  YS02001658           JUNCTION     1.05     2.20     9.35     0  02:43        1.37
  YS02001661           JUNCTION     0.82     2.46     9.86     0  02:43        1.12
  YS02001664           JUNCTION     0.37     0.57     8.49     0  02:43        0.56
  YS02001622           JUNCTION     1.27     1.57     8.48     0  02:32        1.50
  YS02001633           JUNCTION     1.68     1.95     8.40     0  02:59        1.94
  YS02001649           JUNCTION     1.74     2.05     8.44     0  02:43        2.05
  YS02001757           JUNCTION     1.86     2.19     8.45     0  03:19        2.18
  YS02001895           JUNCTION     0.56     1.57     8.31     0  02:54        1.56
  YS02001625           JUNCTION     1.55     1.78     8.38     0  02:32        1.78
  YS02163301           JUNCTION     1.62     1.90     8.42     0  02:32        1.88
  YS02163601           JUNCTION     1.73     1.99     8.39     0  04:09        1.98
  YS02164001           JUNCTION     1.67     1.92     8.38     0  04:09        1.91
  YS02001647           JUNCTION     1.53     1.80     8.41     0  02:49        1.78
  YSB1154              JUNCTION     0.27     0.57     9.62     0  03:01        0.57
  YSB6556              JUNCTION     0.16     0.45     9.62     0  03:02        0.45
  YSB1174              JUNCTION     0.22     0.52     9.62     0  03:01        0.51
  YSB1171              JUNCTION     0.42     0.72     9.62     0  03:01        0.72
  YS02006553           JUNCTION     0.99     1.97     8.25     0  02:58        1.96
  YS02006561           JUNCTION     0.34     1.07     7.73     0  03:02        1.07
  YS02006556           JUNCTION     0.95     1.93     8.24     0  03:01        1.93
  YS02006558           JUNCTION     0.99     1.98     8.24     0  03:00        1.97
  YS02001783           JUNCTION     0.57     1.46     7.60     0  03:01        1.45
  YS02001784           JUNCTION     0.58     1.41     7.48     0  02:26        1.39
  YS02001786           JUNCTION     0.52     1.39     7.42     0  02:26        1.23
  YS02001788           JUNCTION     0.45     1.31     7.28     0  02:26        1.09
  YS02001790           JUNCTION     0.57     1.96     7.60     0  02:24        1.25
  YS02001791           JUNCTION     0.54     2.72     8.19     0  02:24        1.23
  YS02001793           JUNCTION     0.75     3.60     8.43     0  04:38        1.79
  WSC                  OUTFALL      0.34     0.48     1.15     0  03:07        0.48
  JK-storage           STORAGE      2.93     5.80     6.60     0  02:25        5.80
  CC-storage           STORAGE      1.12     1.45     8.45     0  03:16        1.45
  XR-storage           STORAGE      6.48     7.72     5.72     0  02:59        7.72
  
  
  *******************
  Node Inflow Summary
  *******************
  
  -------------------------------------------------------------------------------------------------
                                  Maximum  Maximum                  Lateral       Total        Flow
                                  Lateral    Total  Time of Max      Inflow      Inflow     Balance
                                   Inflow   Inflow   Occurrence      Volume      Volume       Error
  Node                 Type           LPS      LPS  days hr:min    10^6 ltr    10^6 ltr     Percent
  -------------------------------------------------------------------------------------------------
  WS02001211           JUNCTION      7.35   391.99     0  03:17       0.207        10.1       0.391
  WS02001212           JUNCTION      0.00   396.63     0  03:16           0          10       0.236
  WS02001213           JUNCTION      0.00   400.64     0  03:16           0          10       0.264
  WS02003069           JUNCTION      0.32  1331.77     0  03:05     0.00902        18.5       0.146
  WS02003072           JUNCTION      0.00  1331.42     0  03:05           0        18.5       0.185
  WS02003073           JUNCTION      1.82  1333.39     0  03:06      0.0514        18.5       0.209
  WS02003060           JUNCTION     16.53  1331.65     0  03:04       0.466        18.6       0.139
  WS02003066           JUNCTION      0.00   938.57     0  03:04           0        8.13       0.033
  WS02003059           JUNCTION      0.00   405.61     0  03:17           0          10       0.380
  WS02003067           JUNCTION      0.00   938.05     0  03:04           0        8.14       0.075
  WS02004401           JUNCTION      0.00   939.76     0  03:02           0        8.28       0.154
  WS02004402           JUNCTION      0.00   940.31     0  03:02           0        8.27       0.153
  WS02004403           JUNCTION      0.00   940.06     0  03:02           0        8.26       0.147
  WS02004404           JUNCTION      0.16   940.86     0  03:02     0.00457        8.25       0.119
  WS02004406           JUNCTION      0.00   940.20     0  03:02           0        8.23       0.291
  WS02004409           JUNCTION      0.00   939.66     0  03:03           0         8.2       0.087
  WS02004410           JUNCTION      0.00   938.41     0  03:03           0        8.19       0.113
  WS02004411           JUNCTION      0.00   937.91     0  03:03           0        8.18       0.127
  WS02004412           JUNCTION      0.00   937.56     0  03:03           0        8.17       0.151
  WS02004413           JUNCTION      0.00   937.97     0  03:04           0        8.16       0.245
  WS02004405           JUNCTION      0.04   941.27     0  03:02     0.00107        8.24       0.178
  WS02006109           JUNCTION      1.23   915.47     0  03:03      0.0347        8.26       0.114
  WS02006110           JUNCTION      0.00   915.46     0  03:02           0        8.25       0.126
  WS02006111           JUNCTION      0.00   915.68     0  03:02           0        8.23       0.005
  WS02006112           JUNCTION     30.67   939.37     0  03:02      0.0853        8.32       0.246
  WS02006113           JUNCTION      0.00   915.64     0  03:02           0        8.24       0.038
  WS02006115           JUNCTION      0.00   939.33     0  03:02           0         8.3       0.116
  WS02006116           JUNCTION      0.00   939.93     0  03:02           0        8.29       0.096
  WS02006230           JUNCTION     10.28   517.61     0  06:44        0.29        5.81       0.106
  WS02006231           JUNCTION      0.00   507.35     0  06:44           0        5.52      -0.054
  WS02006232           JUNCTION      0.00   507.35     0  06:44           0        5.52       0.095
  WS02006234           JUNCTION      0.00   507.32     0  06:44           0        5.52      -0.053
  WS02006235           JUNCTION      0.00   507.26     0  06:44           0        5.62       0.085
  WS02006238           JUNCTION      0.00   323.09     0  04:42           0         2.1      -0.179
  WS02006240           JUNCTION      0.00   338.56     0  04:42           0           2       0.029
  WS02006242           JUNCTION      0.00   348.37     0  04:41           0        1.96       0.070
  WS02006243           JUNCTION      0.00   357.55     0  04:41           0        1.94      -0.239
  WS02006245           JUNCTION      0.00   362.87     0  04:41           0        1.94       0.278
  WS02006247           JUNCTION      0.00   367.52     0  04:41           0        1.93       0.061
  WS02006248           JUNCTION      0.00   372.07     0  04:40           0        1.93      -0.162
  WS02006249           JUNCTION      0.00   378.53     0  06:40           0        2.04       0.195
  WS02006239           JUNCTION      0.00   328.95     0  04:42           0        2.05      -0.253
  WS02006251           JUNCTION      0.08   400.57     0  04:40     0.00217        2.09      -0.030
  WS02006252           JUNCTION      0.00   399.96     0  06:40           0        1.56       0.011
  WS02006253           JUNCTION      3.75   143.68     0  03:01      0.0103       0.521      -0.057
  WS02006256           JUNCTION      0.00   983.00     0  02:40           0        10.4       0.006
  WS02004138           JUNCTION      0.00   380.00     0  00:00           0        9.92       0.067
  WS02004139           JUNCTION      0.32   394.45     0  00:00     0.00905        9.92       0.451
  WS02004407           JUNCTION      0.00   940.15     0  03:02           0         8.2       0.035
  WS02006228           JUNCTION      0.00   914.40     0  03:03           0        8.23       0.071
  WS02006229           JUNCTION      0.00   917.67     0  03:01           0        8.24       0.105
  WS02006280           JUNCTION      0.00   680.04     0  03:02           0        2.43       0.007
  WS02006284           JUNCTION      0.10   678.91     0  03:02      0.0027        2.43       0.046
  WS02006287           JUNCTION      0.00   677.56     0  03:02           0        2.43       0.031
  WSF200               JUNCTION      0.00   938.73     0  03:04           0        8.13       0.026
  HS02004901           JUNCTION     37.63    37.63     0  03:01       0.103       0.103       1.740
  HS02004881           JUNCTION     14.26   140.50     0  03:01      0.0422       0.463       0.075
  HS02004876           JUNCTION     25.66   127.65     0  03:01      0.0814       0.422       0.131
  HS02004870           JUNCTION     26.26   103.59     0  03:01      0.0799        0.34       0.035
  HS02004862           JUNCTION     25.49    79.37     0  03:01      0.0888       0.261       0.068
  HS02004856           JUNCTION     19.64    55.40     0  03:01      0.0601       0.173       0.842
  HS02004852           JUNCTION      0.00    37.84     0  03:01           0       0.113       0.053
  HS02004848           JUNCTION     55.75    55.75     0  03:01       0.197       0.197       0.028
  HS02004842           JUNCTION      0.00    16.84     0  03:01           0       0.097      15.491
  HS02004837           JUNCTION     50.35    65.69     0  03:01       0.318       0.402       0.204
  HS02004830           JUNCTION      0.15    64.80     0  03:01     0.00423       0.392       0.316
  HS02004824           JUNCTION     65.57   128.43     0  03:01       0.251       0.642       0.086
  HS02004817           JUNCTION      0.60   124.46     0  03:01      0.0169       0.658       2.599
  HS02004807           JUNCTION     48.45   165.70     0  03:01       0.147       0.788       0.554
  HS02004802           JUNCTION      0.00   165.32     0  03:04           0       0.785       0.505
  HS02004799           JUNCTION     38.67   446.08     0  03:01       0.119        1.42       0.191
  HS02004792           JUNCTION    184.82   411.77     0  03:01        0.54         1.3       0.033
  HS02004788           JUNCTION     58.68   233.44     0  03:02       0.219       0.758       0.052
  HS02004785           JUNCTION      0.15   182.20     0  03:01     0.00423        0.54       0.093
  HS02004777           JUNCTION      0.03   185.01     0  03:01    0.000846       0.541       0.972
  HS02004770           JUNCTION    154.22   188.93     0  03:01       0.441       0.542       0.577
  HS02004480           JUNCTION      0.00   517.20     0  03:01           0        1.66       0.070
  HS02004479           JUNCTION      0.00    75.54     0  03:02           0       0.258       0.286
  HS02004478           JUNCTION      0.00   676.95     0  03:02           0        2.43       0.011
  YS02001745           JUNCTION    438.14   438.14     0  03:01        3.01        3.02       0.378
  YS02001748           JUNCTION      0.04   595.93     0  02:32     0.00127        3.01       0.685
  YS02001751           JUNCTION      0.01   443.52     0  03:01     0.00031        2.98       0.798
  YS02001754           JUNCTION      0.26   443.42     0  03:01     0.00733        2.96       0.853
  YS02001762           JUNCTION      0.00   315.62     0  02:43           0        2.22       0.973
  YS02001765           JUNCTION      0.00   315.77     0  02:43           0        2.22       1.120
  YS02001767           JUNCTION      0.54   315.97     0  02:43      0.0151        2.24       1.634
  YS02001770           JUNCTION    552.50   699.61     0  03:16        3.37        4.25       0.763
  YS02001774           JUNCTION      0.00   699.64     0  03:16           0        2.86       0.899
  YS02001779           JUNCTION      0.01   699.66     0  03:16    0.000141        2.83       0.549
  YS02001882           JUNCTION      0.00    21.07     0  02:28           0      0.0188      13.597
  YS02001884           JUNCTION      0.00    37.26     0  02:28           0      0.0564      11.971
  YS02001759           JUNCTION    536.49   623.13     0  02:43        3.11        4.42       0.524
  YS02001887           JUNCTION    679.97   680.36     0  03:01        3.56         3.6       0.234
  YS02001890           JUNCTION      0.00   679.95     0  03:01           0        3.55       0.258
  YS02001898           JUNCTION      0.00   518.10     0  02:56           0        3.45       0.082
  YS02001901           JUNCTION      0.00   518.73     0  03:00           0        3.45       0.200
  YS02001904           JUNCTION      0.00   518.30     0  03:00           0        3.44       0.176
  YS02001907           JUNCTION      0.00  1102.95     0  03:02           0        7.77       0.298
  YS02001910           JUNCTION      0.00   585.71     0  03:02           0        4.34       0.265
  YS02001915           JUNCTION    389.26   585.07     0  03:02        2.52        4.35       0.139
  YS02001918           JUNCTION      0.00   263.01     0  02:50           0        1.84       0.088
  YS02001619           JUNCTION    380.66   380.66     0  03:01        2.51        2.51       0.484
  YS02001629           JUNCTION      0.00   196.60     0  02:39           0        1.59       1.843
  YS02001641           JUNCTION      0.00   413.89     0  02:39           0        4.45       0.479
  YS02001644           JUNCTION    416.76  1528.09     0  03:01         2.9        12.1       0.220
  YS02001652           JUNCTION      0.00   499.57     0  03:01           0        2.62       0.907
  YS02001655           JUNCTION      0.15   499.22     0  03:01     0.00434        2.64       0.936
  YS02001920           JUNCTION      2.87   263.10     0  02:50      0.0809        1.84       0.156
  YS02001923           JUNCTION      0.04   237.98     0  02:50     0.00106        1.76       0.059
  YS02001926           JUNCTION      0.05   202.58     0  03:02     0.00147        1.75       0.189
  YS02001929           JUNCTION    189.18   189.18     0  03:01        1.75        1.75       0.038
  YS02001658           JUNCTION      0.00   595.92     0  02:29           0        2.67       0.762
  YS02001661           JUNCTION      0.00   660.28     0  02:43           0        2.89       0.265
  YS02001664           JUNCTION    492.63   492.63     0  03:01        2.67        2.88       0.209
  YS02001622           JUNCTION      0.00   381.54     0  03:01           0         2.5       1.292
  YS02001633           JUNCTION    423.29   423.29     0  03:01        2.99        4.52       0.719
  YS02001649           JUNCTION      0.00   871.94     0  02:40           0        6.85       0.542
  YS02001757           JUNCTION      0.00  1679.14     0  02:40           0        8.74       1.061
  YS02001895           JUNCTION      0.00   518.28     0  03:00           0        3.45       0.148
  YS02001625           JUNCTION      0.00   406.79     0  03:01           0        2.47       1.589
  YS02163301           JUNCTION      0.00   202.51     0  02:29           0        1.57       1.567
  YS02163601           JUNCTION      0.11   413.84     0  02:39      0.0031        4.48       0.676
  YS02164001           JUNCTION      0.00   413.99     0  02:39           0        4.46       0.460
  YS02001647           JUNCTION      0.00   807.74     0  03:18           0        6.14       0.464
  YSB1154              JUNCTION     44.76    44.76     0  03:01       0.144       0.144       1.017
  YSB6556              JUNCTION      0.00    43.26     0  03:01           0       0.145       0.869
  YSB1174              JUNCTION     38.10    38.10     0  03:01       0.106       0.107       1.222
  YSB1171              JUNCTION      0.00    76.91     0  03:01           0       0.257       2.525
  YS02006553           JUNCTION      0.00   709.04     0  03:46           0        6.75       0.218
  YS02006561           JUNCTION      0.00  1040.99     0  02:48           0        9.97       0.002
  YS02006556           JUNCTION      0.00   709.03     0  03:46           0        6.75       0.157
  YS02006558           JUNCTION    587.14  1041.20     0  02:48        3.28          10       0.052
  YS02001783           JUNCTION      0.00  1040.84     0  02:48           0        9.97       0.020
  YS02001784           JUNCTION      1.06  1041.89     0  02:48      0.0299          10       0.037
  YS02001786           JUNCTION      0.06  1041.82     0  02:48     0.00159          10       0.034
  YS02001788           JUNCTION      0.07  1041.81     0  02:48       0.002          10       0.022
  YS02001790           JUNCTION      0.15  1042.05     0  02:48     0.00437          10       0.014
  YS02001791           JUNCTION      0.00  1042.10     0  02:48           0          10       0.005
  YS02001793           JUNCTION      0.00  1042.11     0  02:48           0          10      -0.005
  WSC                  OUTFALL       0.00  1333.61     0  03:07           0        18.5       0.000
  JK-storage           STORAGE       0.00  1042.06     0  02:48           0        10.1     -10.345
  CC-storage           STORAGE       0.00  1678.33     0  02:40           0         5.7       1.154
  XR-storage           STORAGE    1024.87  1024.87     0  03:01        12.7        13.3       0.002
  
  
  **********************
  Node Surcharge Summary
  **********************
  
  Surcharging occurs when water rises above the top of the highest conduit.
  ---------------------------------------------------------------------
                                               Max. Height   Min. Depth
                                   Hours       Above Crown    Below Rim
  Node                 Type      Surcharged         Meters       Meters
  ---------------------------------------------------------------------
  WS02004401           JUNCTION        0.42          0.237        1.423
  WS02004402           JUNCTION        0.44          0.226        1.514
  WS02004403           JUNCTION        0.45          0.197        1.833
  WS02004404           JUNCTION        0.62          0.245        2.535
  WS02004406           JUNCTION        0.56          0.164        2.286
  WS02004413           JUNCTION        0.18          0.023        2.177
  WS02004405           JUNCTION        0.59          0.222        2.578
  WS02006109           JUNCTION        2.66          0.840        0.980
  WS02006110           JUNCTION        0.85          0.540        1.310
  WS02006111           JUNCTION        0.13          0.076        1.794
  WS02006112           JUNCTION        1.33          0.564        1.116
  WS02006113           JUNCTION        0.16          0.124        1.806
  WS02006115           JUNCTION        0.31          0.209        2.041
  WS02006116           JUNCTION        0.32          0.206        2.084
  WS02006230           JUNCTION        0.59          0.797        0.773
  WS02006231           JUNCTION        0.92          0.812        0.718
  WS02006232           JUNCTION        2.28          0.924        0.556
  WS02006234           JUNCTION        1.70          0.808        0.432
  WS02006235           JUNCTION        1.96          0.833        0.457
  WS02006238           JUNCTION        2.00          0.835        0.595
  WS02006240           JUNCTION        1.34          0.692        0.698
  WS02006242           JUNCTION        1.41          0.698        0.122
  WS02006243           JUNCTION        0.86          0.575        0.195
  WS02006245           JUNCTION        0.72          0.582        0.268
  WS02006247           JUNCTION        0.71          0.547        0.213
  WS02006248           JUNCTION        0.56          0.380        0.000
  WS02006249           JUNCTION        0.60          0.390        0.000
  WS02006239           JUNCTION        1.58          0.752        0.538
  WS02006251           JUNCTION        0.18          0.151        1.029
  WS02006252           JUNCTION        0.80          0.231        0.869
  WS02006253           JUNCTION        0.21          0.224        2.256
  WS02006256           JUNCTION        6.92          2.050        0.000
  WS02006228           JUNCTION        2.61          1.000        1.200
  YS02001748           JUNCTION        5.23          0.488        0.702
  YS02001751           JUNCTION        5.36          0.588        0.612
  YS02001754           JUNCTION        5.57          0.804        0.346
  YS02001762           JUNCTION        5.75          1.045        0.105
  YS02001765           JUNCTION        5.72          0.996        0.104
  YS02001767           JUNCTION        5.69          0.957        0.073
  YS02001770           JUNCTION        5.67          0.910        0.010
  YS02001774           JUNCTION        5.74          0.990        0.060
  YS02001779           JUNCTION        5.56          0.680        0.000
  YS02001882           JUNCTION        1.13          0.636        0.194
  YS02001884           JUNCTION        1.15          0.678        0.192
  YS02001759           JUNCTION        5.78          1.088        0.122
  YS02001887           JUNCTION        1.22          0.766        0.184
  YS02001890           JUNCTION        1.25          0.760        0.000
  YS02001898           JUNCTION        1.07          0.532        0.208
  YS02001901           JUNCTION        1.19          0.678        0.192
  YS02001904           JUNCTION        1.17          0.638        0.212
  YS02001907           JUNCTION        1.94          0.950        0.000
  YS02001910           JUNCTION        1.29          0.784        0.316
  YS02001915           JUNCTION        1.11          0.603        0.397
  YS02001918           JUNCTION        0.89          0.295        0.515
  YS02001619           JUNCTION        5.37          0.577        0.033
  YS02001629           JUNCTION        5.38          0.470        0.000
  YS02001641           JUNCTION        5.73          0.936        0.164
  YS02001644           JUNCTION        5.73          0.920        0.000
  YS02001652           JUNCTION        5.61          1.130        0.000
  YS02001655           JUNCTION        5.39          1.200        0.000
  YS02001920           JUNCTION        0.92          0.379        0.761
  YS02001658           JUNCTION        5.25          1.204        0.096
  YS02001661           JUNCTION        0.07          1.390        0.000
  YS02001622           JUNCTION        5.41          0.573        0.047
  YS02001633           JUNCTION        5.71          0.927        0.133
  YS02001649           JUNCTION        5.75          1.050        0.000
  YS02001757           JUNCTION        5.86          1.188        0.022
  YS02001895           JUNCTION        1.09          0.565        0.185
  YS02001625           JUNCTION        5.64          0.780        0.000
  YS02163301           JUNCTION        5.69          0.905        0.125
  YS02163601           JUNCTION        5.75          0.989        0.091
  YS02164001           JUNCTION        5.72          0.919        0.181
  YS02001647           JUNCTION        5.62          0.804        0.096
  YS02006553           JUNCTION        2.01          0.969        0.221
  YS02006561           JUNCTION        0.92          0.272        0.878
  YS02006556           JUNCTION        1.52          0.893        0.457
  YS02006558           JUNCTION        1.48          0.878        0.522
  YS02001783           JUNCTION        1.44          0.662        0.938
  YS02001784           JUNCTION        1.42          0.610        0.880
  YS02001786           JUNCTION        1.36          0.594        0.836
  YS02001788           JUNCTION        1.20          0.507        0.973
  YS02001790           JUNCTION        2.16          1.157        0.000
  YS02001791           JUNCTION        2.23          1.920        0.000
  YS02001793           JUNCTION        2.47          2.600        0.000
  
  
  *********************
  Node Flooding Summary
  *********************
  
  Flooding refers to all water that overflows a node, whether it ponds or not.
  --------------------------------------------------------------------------
                                                             Total   Maximum
                                 Maximum   Time of Max       Flood    Ponded
                        Hours       Rate    Occurrence      Volume     Depth
  Node                 Flooded       LPS   days hr:min    10^6 ltr    Meters
  --------------------------------------------------------------------------
  WS02006248              0.08     15.04      0  03:03       0.002     0.000
  WS02006249              0.20    226.52      0  03:00       0.103     0.000
  WS02006256              3.92    831.04      0  03:02       6.762     0.000
  YS02001779              2.91    699.66      0  03:16       2.814     0.000
  YS02001890              0.34    163.65      0  03:01       0.085     0.000
  YS02001907              0.76    691.70      0  03:02       1.014     0.000
  YS02001629              0.01     16.42      0  02:32       0.000     0.000
  YS02001644              4.80   1527.42      0  03:01      10.743     0.000
  YS02001652              0.01      5.35      0  02:43       0.000     0.000
  YS02001655              0.01    192.74      0  02:27       0.000     0.000
  YS02001661              0.01    120.53      0  02:43       0.000     0.000
  YS02001649              0.01     39.06      0  02:43       0.000     0.000
  YS02001625              1.39    406.53      0  03:01       0.855     0.000
  YS02001790              0.01    201.92      0  02:24       0.000     0.000
  YS02001791              0.01    228.14      0  02:24       0.000     0.000
  YS02001793              0.01    260.65      0  04:38       0.000     0.000
  JK-storage              0.82    697.07      0  02:29       0.845     0.000
  XR-storage              3.46    644.77      0  03:01       2.615     0.000
  
  
  **********************
  Storage Volume Summary
  **********************
  
  --------------------------------------------------------------------------------------------------
                         Average     Avg  Evap Exfil       Maximum     Max    Time of Max    Maximum
                          Volume    Pcnt  Pcnt  Pcnt        Volume    Pcnt     Occurrence    Outflow
  Storage Unit           1000 m3    Full  Loss  Loss       1000 m3    Full    days hr:min        LPS
  --------------------------------------------------------------------------------------------------
  JK-storage               0.147      50     0     0         0.291     100       0  02:25     983.00
  CC-storage               3.135      20     0     0         4.046      26       0  03:16     399.96
  XR-storage               0.778      84     0     0         0.926     100       0  02:59     380.00
  
  
  ***********************
  Outfall Loading Summary
  ***********************
  
  ---------------------------------------------------------------------------------------------------------------------------------
                         Flow       Avg       Max       Total         Total         Total         Total         Total         Total
                         Freq      Flow      Flow      Volume           COD            SS            TN            TP         NH4-N
  Outfall Node           Pcnt       LPS       LPS    10^6 ltr            kg            kg            kg            kg            kg
  ---------------------------------------------------------------------------------------------------------------------------------
  WSC                   99.99    724.98   1333.61      18.486      2257.773      3897.439       146.133        17.243        88.526
  ---------------------------------------------------------------------------------------------------------------------------------
  System                99.99    724.98   1333.61      18.486      2257.773      3897.439       146.133        17.243        88.526
  
  
  ********************
  Link Flow Summary
  ********************
  
  -----------------------------------------------------------------------------
                                 Maximum  Time of Max   Maximum    Max/    Max/
                                  |Flow|   Occurrence   |Veloc|    Full    Full
  Link                 Type          LPS  days hr:min     m/sec    Flow   Depth
  -----------------------------------------------------------------------------
  WS02003066WSF200     CONDUIT    938.73     0  03:04      3.00    0.16    0.32
  WS02006287WS02006284 CONDUIT    678.82     0  03:02      2.38    0.31    0.39
  WS02006284WS02006280 CONDUIT    680.04     0  03:02      2.62    0.28    0.37
  WS02006280WS02006229 CONDUIT    680.12     0  03:02      3.86    0.15    0.50
  WS02006229WS02006228 CONDUIT    914.40     0  03:03      1.82    3.03    1.00
  WS02006256WS02006235 CONDUIT    261.53     0  06:32      3.70    2.77    1.00
  WS02006253WS02006251 CONDUIT    144.36     0  03:01      0.59    0.43    1.00
  WS02006252WS02006251 CONDUIT    400.49     0  04:40      3.19    1.47    1.00
  WS02006251WS02006249 CONDUIT    378.53     0  06:40      1.13    1.09    1.00
  WS02006249WS02006248 CONDUIT    372.07     0  04:40      1.19    2.04    1.00
  WS02006248WS02006247 CONDUIT    367.52     0  04:41      1.16    0.80    1.00
  WS02006247WS02006245 CONDUIT    362.87     0  04:41      1.14    2.88    1.00
  WS02006245WS02006243 CONDUIT    357.55     0  04:41      1.18    1.06    1.00
  WS02006243WS02006242 CONDUIT    348.37     0  04:41      1.07    0.74    1.00
  WS02006242WS02006240 CONDUIT    338.56     0  04:42      1.00    1.34    1.00
  WS02006240WS02006239 CONDUIT    328.95     0  04:42      1.04    1.04    1.00
  WS02006239WS02006238 CONDUIT    323.09     0  04:42      0.95    1.03    1.00
  WS02006238WS02006235 CONDUIT    322.31     0  04:43      0.94    0.72    1.00
  WS02006235WS02006234 CONDUIT    507.32     0  06:44      1.32    5.35    1.00
  WS02006234WS02006232 CONDUIT    507.35     0  06:44      1.32    1.03    1.00
  WS02006232WS02006231 CONDUIT    507.35     0  06:44      1.32    1.06    1.00
  WS02006231WS02006230 CONDUIT    507.33     0  06:44      1.38    7.70    1.00
  WS02006230WS02006229 CONDUIT    516.98     0  06:45      1.34   11.51    1.00
  WS02006228WS02006109 CONDUIT    914.24     0  03:03      1.82    3.99    1.00
  WS02006116WS02004401 CONDUIT    939.76     0  03:02      1.20    1.30    1.00
  WS02006115WS02006116 CONDUIT    939.93     0  03:02      1.20    1.21    1.00
  WS02006113WS02006111 CONDUIT    915.68     0  03:02      2.58    1.10    1.00
  WS02006112WS02006115 CONDUIT    939.33     0  03:02      1.20    0.55    1.00
  WS02006111WS02006112 CONDUIT    916.06     0  03:02      1.82    0.44    1.00
  WS02006110WS02006113 CONDUIT    915.64     0  03:02      1.82    0.83    1.00
  WS02006109WS02006110 CONDUIT    915.46     0  03:02      1.82    1.76    1.00
  WS02004411WS02004412 CONDUIT    937.56     0  03:03      1.24    1.33    0.92
  WS02004401WS02004402 CONDUIT    940.31     0  03:02      1.20    1.13    1.00
  WS02004413WS02003067 CONDUIT    938.05     0  03:04      1.55    0.40    0.72
  WS02004412WS02004413 CONDUIT    937.97     0  03:04      1.22    0.63    0.95
  WS02004410WS02004411 CONDUIT    937.91     0  03:03      1.23    1.28    0.94
  WS02004409WS02004410 CONDUIT    938.41     0  03:03      1.22    1.21    0.95
  WS02004407WS02004409 CONDUIT    939.66     0  03:03      1.67    0.33    0.68
  WS02004406WS02004407 CONDUIT    940.15     0  03:02      1.60    0.42    0.70
  WS02004405WS02004406 CONDUIT    940.20     0  03:02      1.20    1.85    1.00
  WS02004404WS02004405 CONDUIT    941.23     0  03:02      1.20    9.22    1.00
  WS02004403WS02004404 CONDUIT    940.70     0  03:02      1.20    0.68    1.00
  WS02004402WS02004403 CONDUIT    940.06     0  03:02      1.20    1.35    1.00
  WS02004139WS02001211 CONDUIT    384.64     0  03:17      0.90    0.49    0.64
  WS02004138WS02004139 CONDUIT    394.13     0  00:00      3.62    0.08    0.47
  WS02003067WS02003066 CONDUIT    938.57     0  03:04      1.65    0.30    0.50
  WS02001213WS02003059 CONDUIT    405.61     0  03:17      0.89    0.67    0.87
  WS02001212WS02001213 CONDUIT    400.64     0  03:16      1.32    0.62    0.56
  WS02001211WS02001212 CONDUIT    396.63     0  03:16      0.78    0.30    0.71
  WS02003072WS02003073 CONDUIT   1331.56     0  03:06      1.96    2.88    0.58
  WS02003069WS02003072 CONDUIT   1331.42     0  03:05      1.82    0.64    0.62
  WS02003060WS02003069 CONDUIT   1331.45     0  03:05      2.03    0.52    0.56
  WS02003059WS02003060 CONDUIT    412.20     0  03:16      0.95    0.27    0.77
  HS02004901HS02004770 CONDUIT     37.25     0  03:01      0.10    0.14    0.53
  HS02004876HS02004881 CONDUIT    127.63     0  03:01      1.21    1.36    0.15
  HS02004870HS02004876 CONDUIT    103.08     0  03:01      0.82    0.07    0.18
  HS02004842HS02004848 CONDUIT     16.84     0  03:01      0.07    0.01    0.33
  HS02004837HS02004842 CONDUIT     17.92     0  03:03      0.42    0.01    0.35
  HS02004830HS02004837 CONDUIT     64.65     0  03:01      0.67    0.06    0.14
  HS02004824HS02004830 CONDUIT     64.11     0  03:02      0.62    0.08    0.16
  HS02004817HS02004824 CONDUIT    123.86     0  03:01      0.31    0.06    0.58
  HS02004770HS02004777 CONDUIT    184.98     0  03:01      0.49    0.34    0.54
  HS02004799HS02004480 CONDUIT    444.35     0  03:01      1.07    0.56    0.60
  HS02004792HS02004799 CONDUIT    408.48     0  03:01      1.20    0.25    0.49
  HS02004788HS02004792 CONDUIT    232.93     0  03:02      1.28    0.15    0.26
  HS02004785HS02004788 CONDUIT    181.76     0  03:02      0.91    1.37    0.29
  HS02004777HS02004785 CONDUIT    182.05     0  03:01      0.57    0.22    0.45
  HS02004480HS02004478 CONDUIT    517.31     0  03:01      1.55    2.18    0.48
  HS02004479HS02004480 CONDUIT     77.35     0  03:02      0.30    0.07    0.57
  HS02004862HS02004870 CONDUIT     79.02     0  03:01      0.80    0.09    0.14
  HS02004848HS02004852 CONDUIT     37.84     0  03:01      0.53    0.04    0.10
  HS02004856HS02004862 CONDUIT     54.75     0  03:01      0.59    0.05    0.13
  HS02004852HS02004856 CONDUIT     37.75     0  03:02      0.34    0.04    0.16
  HS02004802HS02004478 CONDUIT    170.17     0  03:04      0.54    0.15    0.48
  HS02004478WS02006287 CONDUIT    677.56     0  03:02      2.11    0.19    0.36
  HS02004817HS02004807 CONDUIT    128.15     0  03:04      0.25    0.08    0.75
  HS02004807HS02004802 CONDUIT    165.32     0  03:04      0.46    0.32    0.53
  YS02001759YS02001757 CONDUIT    622.79     0  02:43      0.79    0.44    1.00
  YS02001762YS02001759 CONDUIT    314.97     0  02:43      0.40    0.36    1.00
  YS02001765YS02001762 CONDUIT    315.62     0  02:43      0.40    0.30    1.00
  YS02001770YS02001767 CONDUIT    315.44     0  02:43      0.40    1.25    1.00
  YS02001774YS02001770 CONDUIT    699.64     0  03:16      0.89    0.45    1.00
  YS02001779YS02001774 CONDUIT    699.65     0  03:16      0.89    0.35    1.00
  YS02001649YS02001757 CONDUIT    872.25     0  02:40      1.11    0.53    1.00
  YS02001767YS02001765 CONDUIT    315.77     0  02:43      0.40    0.40    1.00
  YS02006561YS02001783 CONDUIT   1040.84     0  02:48      2.14    0.54    1.00
  YS02001783YS02001784 CONDUIT   1040.83     0  02:48      2.07    1.43    1.00
  YS02001784YS02001785 CONDUIT   1041.76     0  02:48      2.07    2.42    1.00
  YS02001788YS02001790 CONDUIT   1041.89     0  02:48      2.44    0.77    1.00
  YS02001790YS02001791 CONDUIT   1042.10     0  02:48      2.88    1.13    1.00
  YS02001791YS02001793 CONDUIT   1042.11     0  02:48      5.76    0.45    1.00
  YS02001910YS02001907 CONDUIT    585.19     0  03:02      0.75    0.33    1.00
  YS02001786YS02001788 CONDUIT   1041.74     0  02:48      2.31    2.01    1.00
  YS02001915YS02001910 CONDUIT    585.71     0  03:02      0.75    0.29    1.00
  YS02001918YS02001915 CONDUIT    263.72     0  02:50      0.44    0.15    1.00
  YS02001923YS02001920 CONDUIT    260.23     0  02:50      0.75    0.12    1.00
  YS02001926YS02001923 CONDUIT    237.94     0  02:50      0.86    0.34    0.93
  YS02001929YS02001926 CONDUIT    202.53     0  03:02      0.92    0.10    0.83
  YS02001920YS02001918 CONDUIT    263.01     0  02:50      0.72    0.25    1.00
  YS02001629YS02163301 CONDUIT    202.51     0  02:29      0.26    0.25    1.00
  YS02001619YS02001622 CONDUIT    381.54     0  03:01      0.59    0.56    1.00
  YS02001622YS02001625 CONDUIT    381.10     0  03:01      0.49    0.20    1.00
  YS02001625YS02001629 CONDUIT    196.60     0  02:39      0.25    0.09    1.00
  YS02163301YS02001633 CONDUIT    204.08     0  02:29      0.26    0.19    1.00
  YS02163601YS02164001 CONDUIT    413.99     0  02:39      0.53    0.37    1.00
  YS02164001YS02001641 CONDUIT    413.89     0  02:39      0.53    0.57    1.00
  YS02001641YS02001644 CONDUIT    414.09     0  02:39      0.53    1.34    1.00
  YS02001647YS02001649 CONDUIT    807.74     0  03:18      1.03    0.43    1.00
  YS02006553YS02006556 CONDUIT    709.03     0  03:46      0.90    0.61    1.00
  YS02006556YS02006558 CONDUIT    709.86     0  03:46      0.90    0.56    1.00
  YSB6556YSB1171       CONDUIT     42.87     0  03:02      0.13    0.04    0.82
  YS02001907YS02006553 CONDUIT    709.04     0  03:46      0.79    0.83    1.00
  YS02006558YS02006561 CONDUIT   1040.99     0  02:48      3.68    2.30    1.00
  YS02001633YS02163601 CONDUIT    413.73     0  02:39      0.53    0.43    1.00
  YS02001644YS02001647 CONDUIT    807.42     0  03:18      1.03    0.47    1.00
  YS02001745YS02001748 CONDUIT    595.89     0  02:32      1.45    0.23    0.98
  YS02001748YS02001751 CONDUIT    443.51     0  03:01      1.03    0.22    1.00
  YS02001751YS02001754 CONDUIT    443.16     0  03:01      0.88    0.21    1.00
  YS02001754YS02001757 CONDUIT    443.06     0  03:01      0.56    0.18    1.00
  YS02001882YS02001884 CONDUIT     21.07     0  02:28      0.12    0.02    1.00
  YS02001884YS02001887 CONDUIT     37.26     0  02:28      0.08    0.05    1.00
  YS02001890YS02001895 CONDUIT    518.28     0  03:00      0.66    0.24    1.00
  YS02001895YS02001898 CONDUIT    518.10     0  02:56      0.66    0.90    1.00
  YS02001898YS02001901 CONDUIT    518.73     0  03:00      0.66    0.33    1.00
  YS02001901YS02001904 CONDUIT    518.30     0  03:00      0.66    0.80    1.00
  YS02001904YS02001907 CONDUIT    518.69     0  03:00      0.66    0.18    1.00
  YS02001887YS02001890 CONDUIT    679.95     0  03:01      0.87    1.16    1.00
  YS02001652YS02001649 CONDUIT    499.24     0  03:01      0.64    0.25    1.00
  YS02001655YS02001652 CONDUIT    499.57     0  03:01      0.94    0.24    1.00
  YS02001658YS02001655 CONDUIT    499.07     0  03:01      1.18    0.21    1.00
  YS02001661YS02001658 CONDUIT    595.92     0  02:29      1.52    0.23    1.00
  YS02001664YS02001661 CONDUIT    660.28     0  02:43      1.43    0.21    0.77
  YSB1154YSB6556       CONDUIT     43.26     0  03:01      0.18    0.08    0.73
  YSB1174YSB1171       CONDUIT     36.63     0  03:01      0.11    0.06    0.85
  YSB1171HS02004479    CONDUIT     75.54     0  03:02      0.54    0.05    0.68
  HS02004881HS02006253 CONDUIT    140.44     0  03:01      2.23    0.03    0.54
  YS02001793JiankangQianchi CONDUIT   1042.06     0  02:48     16.43    0.08    1.00
  YS02001757CaochengTiaoxuchi CONDUIT   1678.33     0  02:40      2.17    0.74    1.00
  WSF200WS02003060     CONDUIT    939.04     0  03:04      1.93    0.21    0.45
  1                    CONDUIT   1333.61     0  03:07      3.59    0.46    0.48
  CC-Pump-1            PUMP       200.00     0  06:40              1.00
  CC-Pump-2            PUMP       199.96     0  06:40              1.00
  JK-Pump-1            PUMP       300.00     0  02:01              1.00
  JK-Pump-2            PUMP       683.00     0  02:40              1.00
  XR-Pump-1            PUMP        95.00     0  00:00              1.00
  XR-Pump-2            PUMP        95.00     0  00:00              1.00
  XR-Pump-3            PUMP        95.00     0  00:00              1.00
  XR-Pump-4            PUMP        95.00     0  00:00              1.00
  
  
  ***************************
  Flow Classification Summary
  ***************************
  
  -------------------------------------------------------------------------------------
                      Adjusted    ---------- Fraction of Time in Flow Class ---------- 
                       /Actual         Up    Down  Sub   Sup   Up    Down  Norm  Inlet 
  Conduit               Length    Dry  Dry   Dry   Crit  Crit  Crit  Crit  Ltd   Ctrl  
  -------------------------------------------------------------------------------------
  WS02003066WSF200        1.00   0.01  0.04  0.00  0.00  0.95  0.00  0.00  0.64  0.00
  WS02006287WS02006284    1.00   0.04  0.02  0.00  0.60  0.35  0.00  0.00  0.65  0.00
  WS02006284WS02006280    1.00   0.05  0.00  0.00  0.00  0.00  0.00  0.95  0.00  0.00
  WS02006280WS02006229    1.00   0.05  0.00  0.00  0.01  0.03  0.00  0.91  0.01  0.00
  WS02006229WS02006228    1.00   0.00  0.00  0.00  1.00  0.00  0.00  0.00  0.00  0.00
  WS02006256WS02006235    1.00   0.02  0.00  0.00  0.98  0.00  0.00  0.00  0.00  0.00
  WS02006253WS02006251    1.00   0.01  0.03  0.00  0.95  0.00  0.01  0.00  0.00  0.00
  WS02006252WS02006251    1.00   0.22  0.00  0.00  0.04  0.00  0.74  0.00  0.00  0.00
  WS02006251WS02006249    1.00   0.00  0.00  0.00  1.00  0.00  0.00  0.00  0.43  0.00
  WS02006249WS02006248    1.00   0.00  0.01  0.00  0.83  0.00  0.17  0.00  0.00  0.00
  WS02006248WS02006247    1.00   0.01  0.00  0.00  0.98  0.00  0.00  0.02  0.24  0.00
  WS02006247WS02006245    1.00   0.01  0.00  0.00  0.96  0.00  0.00  0.04  0.00  0.00
  WS02006245WS02006243    1.00   0.01  0.00  0.00  0.93  0.00  0.00  0.06  0.01  0.00
  WS02006243WS02006242    1.00   0.01  0.00  0.00  0.97  0.00  0.00  0.01  0.25  0.00
  WS02006242WS02006240    1.00   0.01  0.01  0.00  0.97  0.00  0.01  0.00  0.00  0.00
  WS02006240WS02006239    1.00   0.02  0.00  0.00  0.91  0.00  0.00  0.07  0.02  0.00
  WS02006239WS02006238    1.00   0.02  0.00  0.00  0.98  0.00  0.00  0.00  0.06  0.00
  WS02006238WS02006235    1.00   0.02  0.00  0.00  0.98  0.00  0.00  0.00  0.00  0.00
  WS02006235WS02006234    1.00   0.02  0.00  0.00  0.94  0.00  0.04  0.00  0.00  0.00
  WS02006234WS02006232    1.00   0.02  0.00  0.00  0.98  0.00  0.00  0.00  0.02  0.00
  WS02006232WS02006231    1.00   0.02  0.00  0.00  0.98  0.00  0.00  0.00  0.00  0.00
  WS02006231WS02006230    1.00   0.02  0.00  0.00  0.59  0.00  0.39  0.00  0.00  0.00
  WS02006230WS02006229    1.00   0.00  0.00  0.00  0.99  0.00  0.00  0.01  0.00  0.00
  WS02006228WS02006109    1.00   0.00  0.00  0.00  1.00  0.00  0.00  0.00  0.00  0.00
  WS02006116WS02004401    1.00   0.03  0.00  0.00  0.97  0.00  0.00  0.00  0.00  0.00
  WS02006115WS02006116    1.00   0.03  0.00  0.00  0.97  0.00  0.00  0.00  0.00  0.00
  WS02006113WS02006111    1.00   0.02  0.00  0.00  0.05  0.93  0.00  0.00  0.21  0.00
  WS02006112WS02006115    1.00   0.02  0.01  0.00  0.97  0.00  0.00  0.00  0.00  0.00
  WS02006111WS02006112    1.00   0.02  0.00  0.00  0.97  0.00  0.00  0.00  0.84  0.00
  WS02006110WS02006113    1.00   0.00  0.02  0.00  0.98  0.00  0.00  0.00  0.00  0.00
  WS02006109WS02006110    1.00   0.00  0.00  0.00  0.99  0.00  0.00  0.00  0.00  0.00
  WS02004411WS02004412    1.00   0.04  0.00  0.00  0.96  0.00  0.00  0.00  0.00  0.00
  WS02004401WS02004402    1.00   0.03  0.00  0.00  0.97  0.00  0.00  0.00  0.00  0.00
  WS02004413WS02003067    1.00   0.04  0.00  0.00  0.00  0.00  0.96  0.00  0.00  0.00
  WS02004412WS02004413    1.00   0.04  0.00  0.00  0.96  0.00  0.00  0.00  0.00  0.00
  WS02004410WS02004411    1.00   0.04  0.00  0.00  0.96  0.00  0.00  0.00  0.00  0.00
  WS02004409WS02004410    1.00   0.04  0.00  0.00  0.96  0.00  0.00  0.00  0.00  0.00
  WS02004407WS02004409    1.00   0.04  0.00  0.00  0.96  0.00  0.00  0.00  0.89  0.00
  WS02004406WS02004407    1.00   0.00  0.04  0.00  0.96  0.00  0.00  0.00  0.00  0.00
  WS02004405WS02004406    1.00   0.00  0.00  0.00  1.00  0.00  0.00  0.00  0.04  0.00
  WS02004404WS02004405    1.00   0.00  0.00  0.00  1.00  0.00  0.00  0.00  0.00  0.00
  WS02004403WS02004404    1.00   0.00  0.03  0.00  0.97  0.00  0.00  0.00  0.00  0.00
  WS02004402WS02004403    1.00   0.03  0.00  0.00  0.97  0.00  0.00  0.00  0.00  0.00
  WS02004139WS02001211    1.00   0.00  0.00  0.00  1.00  0.00  0.00  0.00  0.00  0.00
  WS02004138WS02004139    1.00   0.00  0.00  0.00  1.00  0.00  0.00  0.00  1.00  0.00
  WS02003067WS02003066    1.00   0.04  0.00  0.00  0.95  0.00  0.00  0.00  0.00  0.00
  WS02001213WS02003059    1.00   0.00  0.00  0.00  1.00  0.00  0.00  0.00  0.00  0.00
  WS02001212WS02001213    1.00   0.00  0.00  0.00  0.90  0.00  0.10  0.00  0.00  0.00
  WS02001211WS02001212    1.00   0.00  0.00  0.00  1.00  0.00  0.00  0.00  0.00  0.00
  WS02003072WS02003073    1.00   0.00  0.00  0.00  0.00  0.00  0.00  1.00  0.00  0.00
  WS02003069WS02003072    1.00   0.00  0.00  0.00  1.00  0.00  0.00  0.00  0.09  0.00
  WS02003060WS02003069    1.00   0.00  0.00  0.00  0.99  0.01  0.00  0.00  0.07  0.00
  WS02003059WS02003060    1.00   0.00  0.00  0.00  1.00  0.00  0.00  0.00  0.00  0.00
  HS02004901HS02004770    1.00   0.04  0.00  0.00  0.95  0.00  0.00  0.00  0.00  0.00
  HS02004876HS02004881    1.00   0.01  0.00  0.00  0.90  0.10  0.00  0.00  0.00  0.00
  HS02004870HS02004876    1.00   0.00  0.00  0.00  1.00  0.00  0.00  0.00  0.95  0.00
  HS02004842HS02004848    1.00   0.00  0.05  0.00  0.95  0.00  0.00  0.00  0.54  0.00
  HS02004837HS02004842    1.00   0.00  0.00  0.00  1.00  0.00  0.00  0.00  0.11  0.00
  HS02004830HS02004837    1.00   0.00  0.00  0.00  1.00  0.00  0.00  0.00  0.99  0.00
  HS02004824HS02004830    1.00   0.00  0.00  0.00  1.00  0.00  0.00  0.00  0.01  0.00
  HS02004817HS02004824    1.00   0.00  0.00  0.00  1.00  0.00  0.00  0.00  0.97  0.00
  HS02004770HS02004777    1.00   0.00  0.05  0.00  0.95  0.00  0.00  0.00  0.03  0.00
  HS02004799HS02004480    1.00   0.00  0.01  0.00  0.95  0.00  0.04  0.00  0.00  0.00
  HS02004792HS02004799    1.00   0.00  0.00  0.00  1.00  0.00  0.00  0.00  0.98  0.00
  HS02004788HS02004792    1.00   0.00  0.00  0.00  1.00  0.00  0.00  0.00  0.98  0.00
  HS02004785HS02004788    1.00   0.00  0.00  0.00  1.00  0.00  0.00  0.00  0.00  0.00
  HS02004777HS02004785    1.00   0.00  0.00  0.00  1.00  0.00  0.00  0.00  0.12  0.00
  HS02004480HS02004478    1.00   0.05  0.00  0.00  0.64  0.00  0.00  0.31  0.00  0.00
  HS02004479HS02004480    1.00   0.01  0.00  0.00  0.99  0.00  0.00  0.00  0.12  0.00
  HS02004862HS02004870    1.00   0.00  0.00  0.00  1.00  0.00  0.00  0.00  0.04  0.00
  HS02004848HS02004852    1.00   0.05  0.00  0.00  0.95  0.00  0.00  0.00  0.64  0.00
  HS02004856HS02004862    1.00   0.00  0.06  0.00  0.94  0.00  0.00  0.00  0.83  0.00
  HS02004852HS02004856    1.00   0.04  0.00  0.00  0.95  0.00  0.00  0.00  0.81  0.00
  HS02004802HS02004478    1.00   0.05  0.00  0.00  0.95  0.00  0.00  0.00  0.02  0.00
  HS02004478WS02006287    1.00   0.05  0.00  0.00  0.72  0.22  0.00  0.00  0.65  0.00
  HS02004817HS02004807    1.00   0.00  0.05  0.00  0.95  0.00  0.00  0.00  0.01  0.00
  HS02004807HS02004802    1.00   0.05  0.00  0.00  0.95  0.00  0.00  0.01  0.00  0.00
  YS02001759YS02001757    1.00   0.00  0.00  0.00  1.00  0.00  0.00  0.00  0.16  0.00
  YS02001762YS02001759    1.00   0.00  0.00  0.00  1.00  0.00  0.00  0.00  0.03  0.00
  YS02001765YS02001762    1.00   0.00  0.00  0.00  1.00  0.00  0.00  0.00  0.14  0.00
  YS02001770YS02001767    1.00   0.00  0.00  0.00  1.00  0.00  0.00  0.00  0.00  0.00
  YS02001774YS02001770    1.00   0.00  0.05  0.00  0.95  0.00  0.00  0.00  0.03  0.00
  YS02001779YS02001774    1.00   0.00  0.00  0.00  1.00  0.00  0.00  0.00  0.19  0.00
  YS02001649YS02001757    1.00   0.00  0.00  0.00  1.00  0.00  0.00  0.00  0.16  0.00
  YS02001767YS02001765    1.00   0.00  0.00  0.00  1.00  0.00  0.00  0.00  0.00  0.00
  YS02006561YS02001783    1.00   0.06  0.00  0.00  0.37  0.57  0.00  0.00  0.47  0.00
  YS02001783YS02001784    1.00   0.00  0.06  0.00  0.94  0.00  0.00  0.00  0.00  0.00
  YS02001784YS02001785    1.00   0.00  0.00  0.00  1.00  0.00  0.00  0.00  0.18  0.00
  YS02001788YS02001790    1.00   0.00  0.00  0.00  0.46  0.54  0.00  0.00  0.36  0.00
  YS02001790YS02001791    1.00   0.00  0.00  0.00  0.41  0.59  0.00  0.00  0.46  0.00
  YS02001791YS02001793    1.00   0.00  0.00  0.00  0.43  0.57  0.00  0.00  0.02  0.00
  YS02001910YS02001907    1.00   0.00  0.00  0.00  0.99  0.00  0.00  0.01  0.12  0.00
  YS02001786YS02001788    1.00   0.00  0.00  0.00  0.44  0.56  0.00  0.00  0.00  0.00
  YS02001915YS02001910    1.00   0.00  0.00  0.00  0.99  0.01  0.00  0.00  0.16  0.00
  YS02001918YS02001915    1.00   0.00  0.00  0.00  0.99  0.00  0.00  0.00  0.53  0.00
  YS02001923YS02001920    1.00   0.00  0.00  0.00  1.00  0.00  0.00  0.00  0.82  0.00
  YS02001926YS02001923    1.00   0.00  0.02  0.00  0.18  0.00  0.80  0.00  0.00  0.00
  YS02001929YS02001926    1.00   0.00  0.04  0.00  0.96  0.00  0.00  0.00  0.74  0.00
  YS02001920YS02001918    1.00   0.00  0.00  0.00  1.00  0.00  0.00  0.00  0.00  0.00
  YS02001629YS02163301    1.00   0.05  0.00  0.00  0.94  0.00  0.00  0.00  0.00  0.00
  YS02001619YS02001622    1.00   0.04  0.00  0.00  0.96  0.00  0.00  0.00  0.00  0.00
  YS02001622YS02001625    1.00   0.05  0.00  0.00  0.95  0.00  0.00  0.00  0.05  0.00
  YS02001625YS02001629    1.00   0.05  0.02  0.00  0.91  0.00  0.02  0.00  0.00  0.00
  YS02163301YS02001633    1.00   0.00  0.05  0.00  0.95  0.00  0.00  0.00  0.00  0.00
  YS02163601YS02164001    1.00   0.00  0.03  0.00  0.97  0.00  0.00  0.00  0.00  0.00
  YS02164001YS02001641    1.00   0.00  0.02  0.00  0.97  0.00  0.00  0.00  0.06  0.00
  YS02001641YS02001644    1.00   0.00  0.00  0.00  1.00  0.00  0.00  0.00  0.00  0.00
  YS02001647YS02001649    1.00   0.00  0.06  0.00  0.94  0.00  0.00  0.00  0.01  0.00
  YS02006553YS02006556    1.00   0.00  0.00  0.00  1.00  0.00  0.00  0.00  0.03  0.00
  YS02006556YS02006558    1.00   0.00  0.00  0.00  1.00  0.00  0.00  0.00  0.00  0.00
  YSB6556YSB1171          1.00   0.01  0.03  0.00  0.96  0.00  0.00  0.00  0.00  0.00
  YS02001907YS02006553    1.00   0.00  0.01  0.00  0.99  0.00  0.00  0.00  0.00  0.00
  YS02006558YS02006561    1.00   0.06  0.00  0.00  0.19  0.75  0.00  0.00  0.46  0.00
  YS02001633YS02163601    1.00   0.00  0.00  0.00  1.00  0.00  0.00  0.00  0.15  0.00
  YS02001644YS02001647    1.00   0.00  0.06  0.00  0.94  0.00  0.00  0.00  0.00  0.00
  YS02001745YS02001748    1.00   0.00  0.00  0.00  0.89  0.01  0.00  0.11  0.04  0.00
  YS02001748YS02001751    1.00   0.00  0.00  0.00  0.96  0.04  0.00  0.00  0.15  0.00
  YS02001751YS02001754    1.00   0.00  0.00  0.00  0.93  0.00  0.00  0.07  0.02  0.00
  YS02001754YS02001757    1.00   0.00  0.00  0.00  1.00  0.00  0.00  0.00  0.18  0.00
  YS02001882YS02001884    1.00   0.05  0.00  0.00  0.95  0.00  0.00  0.00  0.00  0.00
  YS02001884YS02001887    1.00   0.02  0.02  0.00  0.96  0.00  0.00  0.00  0.00  0.00
  YS02001890YS02001895    1.00   0.00  0.05  0.00  0.95  0.00  0.00  0.00  0.00  0.00
  YS02001895YS02001898    1.00   0.05  0.00  0.00  0.93  0.00  0.01  0.00  0.00  0.00
  YS02001898YS02001901    1.00   0.06  0.00  0.00  0.94  0.00  0.00  0.00  0.01  0.00
  YS02001901YS02001904    1.00   0.06  0.00  0.00  0.94  0.00  0.00  0.00  0.00  0.00
  YS02001904YS02001907    1.00   0.00  0.06  0.00  0.94  0.00  0.00  0.00  0.00  0.00
  YS02001887YS02001890    1.00   0.00  0.00  0.00  0.99  0.00  0.01  0.00  0.00  0.00
  YS02001652YS02001649    1.00   0.00  0.00  0.00  1.00  0.00  0.00  0.00  0.16  0.00
  YS02001655YS02001652    1.00   0.00  0.00  0.00  0.93  0.00  0.00  0.07  0.02  0.00
  YS02001658YS02001655    1.00   0.00  0.05  0.00  0.91  0.04  0.00  0.00  0.10  0.00
  YS02001661YS02001658    1.00   0.05  0.00  0.00  0.88  0.07  0.00  0.00  0.11  0.00
  YS02001664YS02001661    1.00   0.04  0.00  0.00  0.90  0.05  0.00  0.00  0.20  0.00
  YSB1154YSB6556          1.00   0.04  0.00  0.00  0.96  0.00  0.00  0.00  0.02  0.00
  YSB1174YSB1171          1.00   0.01  0.02  0.00  0.97  0.00  0.00  0.00  0.00  0.00
  YSB1171HS02004479       1.00   0.01  0.00  0.00  0.98  0.00  0.00  0.00  0.10  0.00
  HS02004881HS02006253    1.00   0.02  0.00  0.00  0.45  0.03  0.00  0.49  0.28  0.00
  YS02001793JiankangQianchi    1.00   0.00  0.00  0.00  0.68  0.32  0.00  0.00  0.43  0.00
  YS02001757CaochengTiaoxuchi    1.00   0.00  0.09  0.00  0.91  0.00  0.00  0.00  0.00  0.00
  WSF200WS02003060        1.00   0.00  0.01  0.00  0.99  0.01  0.00  0.00  0.54  0.00
  1                       1.00   0.00  0.00  0.00  0.00  1.00  0.00  0.00  0.54  0.00
  
  
  *************************
  Conduit Surcharge Summary
  *************************
  
  ----------------------------------------------------------------------------
                                                           Hours        Hours 
                         --------- Hours Full --------   Above Full   Capacity
  Conduit                Both Ends  Upstream  Dnstream   Normal Flow   Limited
  ----------------------------------------------------------------------------
  WS02006229WS02006228        2.61      2.71      2.61      3.71         2.61
  WS02006256WS02006235        5.26      5.26      6.92      4.40         0.01
  WS02006253WS02006251        0.52      0.52      0.56      0.01         0.02
  WS02006252WS02006251        0.39      0.39      0.80      0.48         0.01
  WS02006251WS02006249        0.53      0.53      0.60      0.11         0.02
  WS02006249WS02006248        0.56      0.56      0.60      1.07         0.01
  WS02006248WS02006247        0.60      0.60      0.71      0.01         0.01
  WS02006247WS02006245        0.72      0.74      0.72      1.73         0.55
  WS02006245WS02006243        0.75      0.75      0.86      0.03         0.01
  WS02006243WS02006242        0.90      0.90      1.41      0.01         0.01
  WS02006242WS02006240        1.34      1.34      1.56      0.42         0.01
  WS02006240WS02006239        1.39      1.39      1.58      0.03         0.02
  WS02006239WS02006238        1.86      1.86      2.00      0.03         0.04
  WS02006238WS02006235        1.99      1.99      2.11      0.01         0.02
  WS02006235WS02006234        1.70      1.70      1.96      5.06         0.01
[...]
  YS02001770YS02001767        5.69      5.69      5.69      0.48         0.54
  YS02001774YS02001770        5.67      5.67      5.74      0.01         0.01
  YS02001779YS02001774        5.56      5.56      5.74      0.01         0.01
  YS02001649YS02001757        5.75      5.75      5.86      0.01         0.01
  YS02001767YS02001765        5.69      5.69      5.72      0.01         0.01
  YS02006561YS02001783        0.92      0.92      1.44      0.01         0.01
  YS02001783YS02001784        1.42      1.44      1.42      1.47         1.30
  YS02001784YS02001785        1.36      1.42      1.36      2.50         1.36
  YS02001788YS02001790        1.20      1.20      2.16      0.01         0.01
  YS02001790YS02001791        2.16      2.16      2.23      1.17         1.15
  YS02001791YS02001793        2.23      2.23      2.55      0.01         0.01
  YS02001910YS02001907        1.29      1.29      1.93      0.01         0.01
  YS02001786YS02001788        1.20      1.36      1.20      2.05         1.20
  YS02001915YS02001910        1.11      1.11      1.29      0.01         0.01
  YS02001918YS02001915        0.89      0.89      1.11      0.01         0.01
  YS02001923YS02001920        0.74      0.74      0.92      0.01         0.01
  YS02001920YS02001918        0.89      0.89      0.92      0.01         0.01
  YS02001629YS02163301        5.67      5.67      5.69      0.01         0.01
  YS02001619YS02001622        5.37      5.37      5.41      0.01         0.01
  YS02001622YS02001625        5.41      5.41      5.64      0.01         0.01
  YS02001625YS02001629        5.38      5.38      5.64      0.01         0.01
  YS02163301YS02001633        5.69      5.69      5.72      0.01         0.01
  YS02163601YS02164001        5.72      5.72      5.75      0.01         0.01
  YS02164001YS02001641        5.72      5.72      5.73      0.01         0.03
  YS02001641YS02001644        5.73      5.73      5.73      1.72         1.84
  YS02001647YS02001649        5.62      5.62      5.75      0.01         0.01
  YS02006553YS02006556        1.52      1.52      2.01      0.01         0.01
  YS02006556YS02006558        1.68      1.68      2.08      0.01         0.01
  YSB6556YSB1171              0.01      0.01      0.07      0.01         0.01
  YS02001907YS02006553        2.53      2.53      2.75      0.01         0.01
  YS02006558YS02006561        1.06      1.47      1.06      2.34         1.06
  YS02001633YS02163601        5.71      5.71      5.75      0.01         0.01
  YS02001644YS02001647        5.62      5.62      5.73      0.01         0.01
  YS02001745YS02001748        0.01      0.01      5.22      0.01         0.01
  YS02001748YS02001751        5.27      5.27      5.36      0.01         0.01
  YS02001751YS02001754        5.36      5.36      5.57      0.01         0.01
  YS02001754YS02001757        5.61      5.61      5.86      0.01         0.01
  YS02001882YS02001884        1.13      1.13      1.15      0.01         0.01
  YS02001884YS02001887        1.20      1.20      1.22      0.01         0.01
  YS02001890YS02001895        1.09      1.09      1.31      0.01         0.01
  YS02001895YS02001898        1.07      1.07      1.09      0.01         0.01
  YS02001898YS02001901        1.10      1.10      1.19      0.01         0.01
  YS02001901YS02001904        1.17      1.17      1.19      0.01         0.01
  YS02001904YS02001907        1.17      1.17      2.02      0.01         0.01
  YS02001887YS02001890        1.25      1.25      1.28      0.16         0.01
  YS02001652YS02001649        5.63      5.63      5.75      0.01         0.01
  YS02001655YS02001652        5.39      5.39      5.61      0.01         0.01
  YS02001658YS02001655        5.25      5.25      5.39      0.01         0.01
  YS02001661YS02001658        0.06      0.06      5.25      0.01         0.01
  YS02001664YS02001661        0.01      0.01      1.09      0.01         0.01
  HS02004881HS02006253        0.01      0.01      0.21      0.01         0.01
  YS02001793JiankangQianchi        2.47      2.47      4.63      0.01         0.01
  YS02001757CaochengTiaoxuchi        5.11      5.11      5.86      0.01         0.01
  
  
  ***************
  Pumping Summary
  ***************
  
  ---------------------------------------------------------------------------------------------------------
                                                  Min       Avg       Max     Total     Power    % Time Off
                        Percent   Number of      Flow      Flow      Flow    Volume     Usage    Pump Curve
  Pump                 Utilized   Start-Ups       LPS       LPS       LPS  10^6 ltr     Kw-hr    Low   High
  ---------------------------------------------------------------------------------------------------------
  CC-Pump-1               34.04           5      0.00    121.97    200.00     1.080      0.86    0.0    0.0
  CC-Pump-2               17.02           2      0.00    104.18    199.96     0.480      0.46    0.0    0.0
  JK-Pump-1               59.58           5      0.00    232.44    300.00     3.767     56.75    0.0    0.0
  JK-Pump-2               53.20           4      0.00    435.42    683.00     6.586     86.42    0.0   95.3
  XR-Pump-1              100.00           1      0.00     94.42     95.00     2.622     26.50    0.0    0.0
  XR-Pump-2               97.87           2      0.00     93.45     95.00     2.508     24.06    0.0    0.0
  XR-Pump-3               97.87           2      0.00     90.41     95.00     2.394     21.62    0.0    0.0
  XR-Pump-4               97.87           2      0.00     90.41     95.00     2.394     21.62    0.0    0.0
  
  
  ***************************
  Link Pollutant Load Summary
  ***************************
  
  ------------------------------------------------------------------------------------------
                                 COD            SS            TN            TP         NH4-N
  Link                            kg            kg            kg            kg            kg
  ------------------------------------------------------------------------------------------
  WS02003066WSF200           733.103      1377.175        19.601         1.745        10.379
  WS02006287WS02006284       319.448       608.045        10.314         1.015         5.678
  WS02006284WS02006280       319.924       608.823        10.359         1.021         5.707
  WS02006280WS02006229       319.873       608.717        10.357         1.020         5.705
  WS02006229WS02006228       718.660      1350.764        18.947         1.671         9.996
  WS02006256WS02006235       219.887       408.065         4.784         0.370         2.411
  WS02006253WS02006251        62.271       122.309         1.376         0.104         0.683
  WS02006252WS02006251       137.946       252.058         2.926         0.216         1.448
  WS02006251WS02006249       192.389       360.257         4.131         0.307         2.047
  WS02006249WS02006248       180.031       335.852         3.880         0.289         1.924
  WS02006248WS02006247       180.267       336.284         3.886         0.290         1.928
  WS02006247WS02006245       180.197       336.156         3.886         0.290         1.927
  WS02006245WS02006243       179.979       335.851         3.876         0.289         1.922
  WS02006243WS02006242       180.571       336.920         3.892         0.290         1.930
  WS02006242WS02006240       181.515       338.532         3.909         0.291         1.938
  WS02006240WS02006239       183.595       342.101         3.974         0.297         1.973
  WS02006239WS02006238       186.907       347.638         4.088         0.308         2.037
  WS02006238WS02006235       189.119       351.339         4.159         0.315         2.076
  WS02006235WS02006234       400.226       744.391         8.663         0.658         4.334
  WS02006234WS02006232       400.132       744.197         8.664         0.659         4.336
  WS02006232WS02006231       399.947       743.852         8.659         0.658         4.332
  WS02006231WS02006230       399.984       743.906         8.661         0.658         4.334
  WS02006230WS02006229       399.490       743.145         8.642         0.657         4.323
  WS02006228WS02006109       717.902      1349.479        18.892         1.664         9.963
  WS02006116WS02004401       734.979      1380.450        19.696         1.756        10.435
  WS02006115WS02006116       735.203      1380.809        19.712         1.758        10.445
  WS02006113WS02006111       724.408      1359.646        19.578         1.751        10.394
  WS02006112WS02006115       735.763      1381.725        19.745         1.761        10.464
  WS02006111WS02006112       724.165      1359.325        19.560         1.749        10.383
  WS02006110WS02006113       724.811      1360.366        19.599         1.753        10.406
  WS02006109WS02006110       725.872      1362.167        19.669         1.761        10.449
  WS02004411WS02004412       734.275      1379.098        19.678         1.754        10.426
  WS02004401WS02004402       734.536      1379.720        19.668         1.752        10.418
  WS02004413WS02003067       733.254      1377.506        19.605         1.745        10.381
  WS02004412WS02004413       733.970      1378.603        19.660         1.752        10.414
  WS02004410WS02004411       734.451      1379.410        19.689         1.755        10.432
  WS02004409WS02004410       734.671      1379.775        19.703         1.757        10.441
  WS02004407WS02004409       734.662      1379.776        19.704         1.757        10.441
  WS02004406WS02004407       734.466      1379.495        19.693         1.756        10.435
  WS02004405WS02004406       735.254      1380.818        19.753         1.763        10.471
  WS02004404WS02004405       734.902      1380.261        19.725         1.760        10.454
  WS02004403WS02004404       733.972      1378.791        19.629         1.748        10.395
  WS02004402WS02004403       734.323      1379.365        19.652         1.751        10.408
  WS02004139WS02001211      1382.838      2295.983       112.268        13.704        69.203
  WS02004138WS02004139      1388.900      2306.116       112.734        13.761        69.489
  WS02003067WS02003066       733.170      1377.284        19.607         1.746        10.382
  WS02001213WS02003059      1416.865      2349.511       115.779        14.147        71.409
  WS02001212WS02001213      1425.339      2363.567       116.462        14.230        71.829
  WS02001211WS02001212      1427.375      2366.885       116.639        14.252        71.939
  WS02003072WS02003073      2251.730      3888.727       145.366        17.144        88.038
  WS02003069WS02003072      2256.385      3896.186       145.787        17.196        88.301
  WS02003060WS02003069      2258.696      3900.103       145.948        17.215        88.399
  WS02003059WS02003060      1414.272      2345.102       115.600        14.126        71.300
  HS02004901HS02004770        13.093        25.473         0.248         0.019         0.116
  HS02004876HS02004881        45.511        90.339         0.999         0.073         0.491
  HS02004870HS02004876        34.380        68.100         0.798         0.060         0.395
  HS02004842HS02004848         6.456        12.343         0.134         0.009         0.062
  HS02004837HS02004842        11.057        19.637         0.603         0.068         0.356
  HS02004830HS02004837        70.295       122.722         4.643         0.552         2.827
  HS02004824HS02004830        71.066       123.976         4.715         0.561         2.871
  HS02004817HS02004824        97.160       176.399         5.254         0.596         3.134
  HS02004770HS02004777        49.660        97.708         1.021         0.069         0.472
  HS02004799HS02004480       162.313       310.811         4.263         0.379         2.209
  HS02004792HS02004799       147.266       280.104         4.028         0.367         2.105
  HS02004788HS02004792        82.813       157.677         2.666         0.255         1.440
  HS02004785HS02004788        51.118       100.042         1.172         0.089         0.567
  HS02004777HS02004785        50.444        98.938         1.112         0.081         0.530
  HS02004480HS02004478       204.796       395.133         4.971         0.429         2.543
  HS02004479HS02004480        46.120        90.100         1.036         0.091         0.538
  HS02004862HS02004870        25.798        50.336         0.628         0.050         0.314
  HS02004848HS02004852        10.251        19.884         0.210         0.014         0.097
  HS02004856HS02004862        17.523        34.747         0.350         0.023         0.164
  HS02004852HS02004856        10.255        19.888         0.210         0.014         0.097
  HS02004802HS02004478       115.333       214.033         5.397         0.592         3.169
  HS02004478WS02006287       319.659       608.413        10.330         1.017         5.689
  HS02004817HS02004807        95.855       174.304         5.130         0.581         3.057
  HS02004807HS02004802       115.590       214.437         5.429         0.596         3.189
  YS02001759YS02001757       303.134       556.034         6.065         0.422         2.965
  YS02001762YS02001759       195.814       360.629         4.044         0.284         1.991
  YS02001765YS02001762       197.184       364.013         4.087         0.288         2.015
  YS02001770YS02001767       201.095       373.816         4.012         0.271         1.951
  YS02001774YS02001770       312.357       604.003         6.015         0.403         2.910
  YS02001779YS02001774       311.600       602.505         6.100         0.416         2.969
  YS02001649YS02001757       395.759       719.111         7.998         0.547         3.857
  YS02001767YS02001765       199.249       368.731         4.136         0.292         2.040
  YS02006561YS02001783      1026.226      1902.524        21.505         1.605        10.701
  YS02001783YS02001784      1026.156      1902.433        21.502         1.605        10.699
  YS02001784YS02001785      1033.485      1914.176        22.215         1.694        11.145
  YS02001788YS02001790      1034.090      1915.171        22.287         1.703        11.191
  YS02001790YS02001791      1035.107      1916.810        22.387         1.716        11.254
  YS02001791YS02001793      1035.079      1916.780        22.384         1.715        11.251
  YS02001910YS02001907       391.268       721.574         9.394         0.719         4.814
  YS02001786YS02001788      1033.676      1914.494        22.243         1.698        11.163
  YS02001915YS02001910       391.287       721.591         9.345         0.712         4.781
  YS02001918YS02001915       186.037       328.017         5.129         0.467         2.763
  YS02001923YS02001920       165.884       295.602         3.176         0.223         1.542
  YS02001926YS02001923       164.593       293.427         3.102         0.214         1.497
  YS02001929YS02001926       164.208       292.783         3.065         0.210         1.475
  YS02001920YS02001918       185.678       327.242         5.094         0.463         2.742
  YS02001629YS02163301        96.052       169.840         2.027         0.131         0.946
  YS02001619YS02001622       175.888       321.161         3.602         0.236         1.684
  YS02001622YS02001625       174.689       319.252         3.573         0.234         1.671
  YS02001625YS02001629        97.137       171.615         2.052         0.132         0.957
  YS02163301YS02001633        96.371       170.624         2.029         0.132         0.948
  YS02163601YS02164001       405.788       733.279         7.900         0.562         3.784
  YS02164001YS02001641       405.262       732.388         7.880         0.560         3.773
  YS02001641YS02001644       405.319       732.406         7.875         0.560         3.770
  YS02001647YS02001649       505.487       929.073        10.117         0.698         4.845
  YS02006553YS02006556       692.156      1272.671        14.877         1.139         7.487
  YS02006556YS02006558       692.190      1272.723        14.850         1.135         7.468
  YSB6556YSB1171              26.519        51.962         0.537         0.045         0.272
  YS02001907YS02006553       692.174      1272.726        14.883         1.140         7.491
  YS02006558YS02006561      1026.136      1902.354        21.503         1.605        10.700
  YS02001633YS02163601       406.500       734.382         7.880         0.558         3.768
  YS02001644YS02001647       510.425       938.296        10.189         0.703         4.878
  YS02001745YS02001748       250.660       468.458         5.564         0.389         2.774
  YS02001748YS02001751       248.524       464.417         5.601         0.398         2.807
  YS02001751YS02001754       247.598       462.884         5.590         0.398         2.804
  YS02001754YS02001757       248.327       463.969         5.753         0.420         2.910
  YS02001882YS02001884         2.760         4.754         0.056         0.004         0.028
  YS02001884YS02001887         6.971        12.332         0.137         0.011         0.068
  YS02001890YS02001895       451.091       846.677         8.304         0.624         4.050
  YS02001895YS02001898       450.945       846.493         8.298         0.624         4.047
  YS02001898YS02001901       450.770       846.200         8.294         0.624         4.045
  YS02001901YS02001904       450.643       846.032         8.301         0.625         4.050
  YS02001904YS02001907       450.892       846.427         8.354         0.632         4.085
  YS02001887YS02001890       468.349       880.909         8.647         0.653         4.223
  YS02001652YS02001649       208.402       386.485         4.203         0.302         1.970
  YS02001655YS02001652       209.246       387.831         4.225         0.304         1.981
  YS02001658YS02001655       209.071       387.541         4.146         0.293         1.928
  YS02001661YS02001658       212.656       393.864         4.220         0.298         1.962
  YS02001664YS02001661       220.767       406.840         4.409         0.310         2.048
  YSB1154YSB6556              26.082        51.266         0.486         0.038         0.239
  YSB1174YSB1171              18.019        35.559         0.361         0.029         0.180
  YSB1171HS02004479           46.086        90.047         1.039         0.092         0.540
  HS02004881HS02006253        51.407       102.366         1.107         0.080         0.543
  YS02001793JiankangQianchi      1034.700      1916.209        22.336         1.709        11.221
  YS02001757CaochengTiaoxuchi       501.626       911.095        10.637         0.775         5.251
  WSF200WS02003060           733.133      1377.157        19.610         1.746        10.384
  1                         2257.773      3897.439       146.133        17.243        88.526
  CC-Pump-1                   94.847       173.213         2.003         0.147         0.990
  CC-Pump-2                   42.736        78.248         0.899         0.066         0.444
  JK-Pump-1                  265.022       497.792         5.515         0.415         2.747
  JK-Pump-2                  581.609      1095.389        12.033         0.903         5.985
  XR-Pump-1                  377.460       624.965        31.059         3.799        19.168
  XR-Pump-2                  351.129       582.838        28.532         3.483        17.588
  XR-Pump-3                  331.945       552.117        26.718         3.257        16.457
  XR-Pump-4                  331.945       552.117        26.718         3.257        16.457
  

  Analysis begun on:  Thu Jul 15 23:07:56 2021
  Analysis ended on:  Thu Jul 15 23:07:58 2021
  Total elapsed time: 00:00:02