
  EPA STORM WATER MANAGEMENT MODEL - VERSION 5.1 (Build 5.3.0.dev0)
  --------------------------------------------------------------

  WARNING 04: minimum elevation drop used for Conduit WS02004404WS02004405
  WARNING 03: negative offset ignored for Link YS02001904YS02001907
  
  *********************************************************
  NOTE: The summary statistics displayed in this report are
  based on results found at every computational time step,  
  not just on results from each reporting time step.
  *********************************************************
  
  ****************
  Analysis Options
  ****************
  Flow Units ............... LPS
  Process Models:
    Rainfall/Runoff ........ YES
    RDII ................... NO
    Snowmelt ............... NO
    Groundwater ............ NO
    Flow Routing ........... YES
    Ponding Allowed ........ NO
    Water Quality .......... YES
  Infiltration Method ...... HORTON
  Flow Routing Method ...... DYNWAVE
  Surcharge Method ......... EXTRAN
  Starting Date ............ 08/28/2015 08:00:00
  Ending Date .............. 08/28/2015 15:50:00
  Antecedent Dry Days ...... 8.0
  Report Time Step ......... 00:01:00
  Wet Time Step ............ 00:01:00
  Dry Time Step ............ 00:01:00
  Routing Time Step ........ 5.00 sec
  Variable Time Step ....... YES
  Maximum Trials ........... 8
  Number of Threads ........ 4
  Head Tolerance ........... 0.001500 m
  
  
  **************************        Volume         Depth
  Runoff Quantity Continuity     hectare-m            mm
  **************************     ---------       -------
  Total Precipitation ......         6.144        13.452
  Evaporation Loss .........         0.000         0.000
  Infiltration Loss ........         1.064         2.328
  Surface Runoff ...........         4.147         9.079
  Final Storage ............         0.935         2.047
  Continuity Error (%) .....        -0.020
  
  
  **************************           COD            SS            TN            TP         NH4-N
  Runoff Quality Continuity             kg            kg            kg            kg            kg
  **************************    ----------    ----------    ----------    ----------    ----------
  Initial Buildup ..........     41378.656     70582.865      1804.177       168.684      1032.807
  Surface Buildup ..........        21.799        40.924         2.400         0.218         1.395
  Wet Deposition ...........         0.000         0.000         0.000         0.000         0.000
  Sweeping Removal .........         0.000         0.000         0.000         0.000         0.000
  Infiltration Loss ........        97.311       184.943         1.849         0.130         0.881
  BMP Removal ..............         0.000         0.000         0.000         0.000         0.000
  Surface Runoff ...........      3769.819      7064.251        72.781         4.964        34.599
  Remaining Buildup ........     37531.916     63371.884      1731.919       163.806       998.709
  Continuity Error (%) .....         0.003         0.004         0.002         0.001         0.001
  
  
  **************************        Volume        Volume
  Flow Routing Continuity        hectare-m      10^6 ltr
  **************************     ---------     ---------
  Dry Weather Inflow .......         0.616         6.165
  Wet Weather Inflow .......         4.145        41.451
  Groundwater Inflow .......         0.000         0.000
  RDII Inflow ..............         0.000         0.000
  External Inflow ..........         0.102         1.024
  External Outflow .........         1.888        18.882
  Flooding Loss ............         2.532        25.320
  Evaporation Loss .........         0.000         0.000
  Exfiltration Loss ........         0.000         0.000
  Initial Stored Volume ....         0.076         0.761
  Final Stored Volume ......         0.640         6.397
  Continuity Error (%) .....        -2.427
  
  
  **************************           COD            SS            TN            TP         NH4-N
  Quality Routing Continuity            kg            kg            kg            kg            kg
  **************************    ----------    ----------    ----------    ----------    ----------
  Dry Weather Inflow .......      1541.201      2465.922       147.955        18.494        92.472
  Wet Weather Inflow .......      3768.936      7062.732        72.762         4.963        34.591
  Groundwater Inflow .......         0.000         0.000         0.000         0.000         0.000
  RDII Inflow ..............         0.000         0.000         0.000         0.000         0.000
  External Inflow ..........       183.418       293.469        17.608         2.201        11.005
  External Outflow .........      2290.986      3956.300       147.001        17.315        88.980
  Flooding Loss ............      2526.038      4702.429        63.901         5.510        33.440
  Exfiltration Loss ........         0.000         0.000         0.000         0.000         0.000
  Mass Reacted .............         0.000         0.000         0.000         0.000         0.000
  Initial Stored Mass ......         0.000         0.000         0.000         0.000         0.000
  Final Stored Mass ........       555.307       958.330        24.472         2.607        14.157
  Continuity Error (%) .....         2.207         2.088         1.239         0.882         1.079
  
  
  *************************
  Highest Continuity Errors
  *************************
  Node HS02004842 (13.41%)
  Node JK-storage (-11.28%)
  Node YS02001884 (10.79%)
  Node HS02004817 (2.53%)
  Node YSB1171 (2.46%)
  
  
  ***************************
  Time-Step Critical Elements
  ***************************
  Link WS02006252WS02006251 (61.94%)
  Link WS02006280WS02006229 (11.14%)
  Link WS02006238WS02006235 (9.16%)
  Link YS02001793JiankangQianchi (3.39%)
  Link YS02006556YS02006558 (2.12%)
  
  
  ********************************
  Highest Flow Instability Indexes
  ********************************
  Link WS02006113WS02006111 (44)
  Link YS02163301YS02001633 (34)
  Link YS02001629YS02163301 (34)
  Link YS02001619YS02001622 (34)
  Link YS02163601YS02164001 (34)
  
  
  *************************
  Routing Time Step Summary
  *************************
  Minimum Time Step           :     0.50 sec
  Average Time Step           :     1.25 sec
  Maximum Time Step           :     5.00 sec
  Percent in Steady State     :    -0.00
  Average Iterations per Step :     4.00
  Percent Not Converging      :    14.34
  
  
  ***************************
  Subcatchment Runoff Summary
  ***************************
  
  ------------------------------------------------------------------------------------------------------------------------------
                            Total      Total      Total      Total     Imperv       Perv      Total       Total     Peak  Runoff
                           Precip      Runon       Evap      Infil     Runoff     Runoff     Runoff      Runoff   Runoff   Coeff
  Subcatchment                 mm         mm         mm         mm         mm         mm         mm    10^6 ltr      LPS
  ------------------------------------------------------------------------------------------------------------------------------
  sub0                      13.45       0.00       0.00       0.63      12.47       0.31      12.77        0.01     3.75   0.950
  sub1                      13.45       0.00       0.00       1.12      11.88       0.36      12.24        0.08    25.66   0.910
  sub2                      13.45       0.00       0.00       4.44       8.39       0.53       8.92        0.08    25.29   0.663
  sub3                      13.45       0.00       0.00       4.56       8.35       0.42       8.77        0.20    55.75   0.652
  sub4                      13.45       0.00       0.00       1.22      11.71       0.26      11.97        0.25    65.52   0.890
  sub5                      13.45       0.00       0.00       0.68      12.41       0.26      12.67        0.14    44.76   0.942
  sub7                      13.45       0.00       0.00       0.86      12.18       0.35      12.53        0.04    14.26   0.931
  sub8                      13.45       0.00       0.00       0.87      12.17       0.34      12.50        0.08    26.26   0.930
  sub9                      13.45       0.00       0.00       0.88      12.17       0.33      12.50        0.06    19.64   0.929
  sub10                     13.45       0.00       0.00       0.78      12.29       0.29      12.58        0.14    44.00   0.935
  sub11                     13.45       0.00       0.00       0.77      12.30       0.31      12.61        0.15    48.45   0.938
  sub12                     13.45       0.00       0.00       1.25      11.66       0.50      12.16        0.11    38.10   0.904
  sub14                     13.45       0.00       0.00       0.88      12.16       0.33      12.49        0.12    38.67   0.929
  sub15                     13.45       0.00       0.00       3.37       9.35       0.66      10.01        0.17    57.01   0.744
  sub16                     13.45       0.00       0.00       3.56       8.97       0.88       9.85        0.10    37.63   0.732
  sub17                     13.45       0.00       0.00       3.47       9.10       0.84       9.94        0.09    30.67   0.739
  sub22                     13.45       0.00       0.00       4.98       7.63       0.81       8.43        0.53   184.54   0.627
  sub23                     13.45       0.00       0.00       4.17       8.43       0.81       9.24        0.44   154.22   0.687
  sub60                     13.45       0.00       0.00       1.53       9.85       0.09       9.93        3.01   438.14   0.738
  sub61                     13.45       0.00       0.00       2.16       9.95       0.12      10.07        3.11   536.45   0.749
  sub62                     13.45       0.00       0.00       0.98      10.84       0.10      10.94        3.36   552.35   0.813
  sub63                     13.45       0.00       0.00       3.77       8.69       0.14       8.83        2.67   492.63   0.656
  sub64                     13.45       0.00       0.00       1.93       9.45       0.09       9.54        2.90   416.72   0.709
  sub65                     13.45       0.00       0.00       1.67       9.61       0.08       9.70        2.98   423.09   0.721
  sub66                     13.45       0.00       0.00       3.81       8.10       0.09       8.18        2.51   380.66   0.608
  sub67                     13.45       0.00       0.00       0.95      11.38       0.13      11.51        3.55   679.52   0.856
  sub68                     13.45       0.00       0.00       1.75      10.45       0.13      10.59        3.26   586.26   0.787
  sub69                     13.45       0.00       0.00       1.83      10.79       0.19      10.98        2.57   544.72   0.816
  sub70                     13.45      11.20       0.00       7.51      14.65       0.88      15.52        3.55   494.81   0.630
  sub71                     13.45       0.00       0.00       0.99      10.58       0.09      10.67        2.52   389.24   0.793
  sub72                     13.45       0.00       0.00       0.89       8.56       0.05       8.61        1.75   189.18   0.640
  1                         13.45      15.11       0.00       1.37      16.56       4.63      21.19        4.98   484.42   0.742
  2                         13.45       0.00       0.00       3.02       3.21       1.96       5.17        2.07   340.45   0.384
  
  
  ****************************
  Subcatchment Washoff Summary
  ****************************
  
  ------------------------------------------------------------------------------------------
                                 COD            SS            TN            TP         NH4-N
  Subcatchment                    kg            kg            kg            kg            kg
  ------------------------------------------------------------------------------------------
  sub0                         2.670         5.197         0.046         0.004         0.022
  sub1                        11.241        22.423         0.210         0.015         0.101
  sub2                         6.894        13.384         0.145         0.010         0.067
  sub3                        16.924        32.573         0.350         0.024         0.161
  sub4                        25.772        51.904         0.510         0.031         0.245
  sub5                        25.778        50.682         0.460         0.035         0.223
  sub7                         5.751        11.638         0.108         0.007         0.052
  sub8                         8.581        17.755         0.171         0.010         0.082
  sub9                         7.353        15.005         0.142         0.009         0.068
  sub10                       21.202        42.223         0.389         0.028         0.188
  sub11                       20.657        41.614         0.386         0.026         0.187
  sub12                       17.724        35.094         0.321         0.024         0.155
  sub14                       15.732        31.800         0.298         0.020         0.144
  sub15                       20.231        39.321         0.389         0.028         0.182
  sub16                       13.129        25.518         0.249         0.019         0.117
  sub17                       12.049        23.208         0.222         0.017         0.105
  sub22                       62.582       119.432         1.186         0.090         0.554
  sub23                       36.683        72.439         0.776         0.051         0.357
  sub60                      243.520       456.962         4.842         0.298         2.321
  sub61                      302.151       564.434         5.627         0.386         2.710
  sub62                      313.722       596.076         6.119         0.388         2.938
  sub63                      223.275       410.850         4.468         0.314         2.075
  sub64                      305.877       553.773         5.626         0.410         2.687
  sub65                      313.037       569.066         5.795         0.415         2.772
  sub66                      176.068       321.340         3.608         0.236         1.687
  sub67                      466.222       877.505         8.365         0.616         4.045
  sub68                      332.037       626.413         6.347         0.429         3.034
  sub69                      298.258       568.561         5.590         0.393         2.674
  sub70                      502.897       962.303        10.037         0.699         4.710
  sub71                      206.745       396.330         4.242         0.246         2.030
  sub72                      164.385       293.107         3.069         0.210         1.476
  1                          349.075       671.606         7.102         0.495         3.297
  2                           42.749        75.577         1.214         0.073         0.518
  ------------------------------------------------------------------------------------------
  System                    4570.974      8595.115        88.408         6.057        41.983
  
  
  ******************
  Node Depth Summary
  ******************
  
  ---------------------------------------------------------------------------------
                                 Average  Maximum  Maximum  Time of Max    Reported
                                   Depth    Depth      HGL   Occurrence   Max Depth
  Node                 Type       Meters   Meters   Meters  days hr:min      Meters
  ---------------------------------------------------------------------------------
  WS02001211           JUNCTION     0.77     0.85     5.68     0  03:07        0.85
  WS02001212           JUNCTION     0.47     0.58     5.64     0  03:07        0.58
  WS02001213           JUNCTION     0.71     0.85     5.61     0  03:06        0.85
  WS02003069           JUNCTION     0.50     0.72     5.30     0  03:05        0.72
  WS02003072           JUNCTION     0.56     0.76     5.13     0  03:06        0.76
  WS02003073           JUNCTION     0.34     0.48     4.54     0  03:06        0.48
  WS02003060           JUNCTION     0.44     0.63     5.56     0  03:05        0.63
  WS02003066           JUNCTION     0.24     0.39     5.94     0  03:04        0.39
  WS02003059           JUNCTION     0.76     0.91     5.59     0  03:05        0.91
  WS02003067           JUNCTION     0.58     0.82     6.14     0  03:03        0.82
  WS02004401           JUNCTION     0.69     1.25     7.25     0  03:01        1.23
  WS02004402           JUNCTION     0.72     1.24     7.20     0  03:01        1.22
  WS02004403           JUNCTION     0.74     1.21     7.14     0  03:01        1.20
  WS02004404           JUNCTION     0.81     1.26     7.11     0  03:01        1.24
  WS02004406           JUNCTION     0.82     1.18     7.01     0  03:00        1.16
  WS02004409           JUNCTION     0.50     0.96     6.73     0  03:03        0.96
  WS02004410           JUNCTION     0.52     0.95     6.67     0  03:03        0.95
  WS02004411           JUNCTION     0.53     0.93     6.61     0  03:03        0.93
  WS02004412           JUNCTION     0.55     0.90     6.54     0  03:03        0.90
  WS02004413           JUNCTION     0.71     1.02     6.49     0  03:04        1.02
  WS02004405           JUNCTION     0.81     1.23     7.08     0  03:01        1.21
  WS02006109           JUNCTION     0.78     1.67     8.28     0  03:02        1.66
  WS02006110           JUNCTION     0.76     1.46     8.05     0  03:02        1.45
  WS02006111           JUNCTION     0.24     0.91     7.62     0  03:01        0.89
  WS02006112           JUNCTION     0.87     1.58     7.46     0  03:01        1.56
  WS02006113           JUNCTION     0.35     0.94     7.83     0  03:01        0.93
  WS02006115           JUNCTION     0.58     1.24     7.38     0  03:01        1.22
  WS02006116           JUNCTION     0.67     1.28     7.32     0  03:01        1.26
  WS02006230           JUNCTION     0.76     1.89     8.63     0  03:02        1.88
  WS02006231           JUNCTION     0.51     1.53     8.65     0  03:02        1.52
  WS02006232           JUNCTION     0.65     1.64     8.67     0  03:02        1.63
  WS02006234           JUNCTION     0.57     1.53     8.69     0  03:01        1.53
  WS02006235           JUNCTION     0.61     1.55     8.71     0  03:02        1.54
  WS02006238           JUNCTION     0.63     1.56     8.71     0  03:02        1.56
  WS02006240           JUNCTION     0.52     1.41     8.70     0  03:02        1.40
  WS02006242           JUNCTION     0.56     1.44     8.71     0  03:02        1.42
  WS02006243           JUNCTION     0.44     1.29     8.71     0  05:32        1.27
  WS02006245           JUNCTION     0.41     1.28     8.77     0  05:32        1.20
  WS02006247           JUNCTION     0.42     1.25     8.75     0  05:32        1.19
  WS02006248           JUNCTION     0.36     1.10     8.69     0  03:01        1.10
  WS02006249           JUNCTION     0.39     1.09     8.69     0  03:01        1.09
  WS02006239           JUNCTION     0.58     1.50     8.70     0  03:02        1.49
  WS02006251           JUNCTION     0.36     1.29     8.96     0  07:09        1.12
  WS02006252           JUNCTION     0.25     0.84     9.08     0  07:09        0.68
  WS02006253           JUNCTION     0.39     1.35     9.00     0  07:09        1.15
  WS02006256           JUNCTION     1.73     2.35     9.28     0  00:00        2.35
  WS02004138           JUNCTION     0.19     0.20     7.45     0  00:00        0.19
  WS02004139           JUNCTION     0.71     0.79     5.70     0  03:07        0.79
  WS02004407           JUNCTION     0.22     0.40     6.71     0  03:03        0.40
  WS02006228           JUNCTION     0.78     1.84     8.49     0  03:02        1.84
  WS02006229           JUNCTION     0.76     1.91     8.61     0  03:02        1.91
  WS02006280           JUNCTION     0.07     0.31     8.58     0  03:00        0.30
  WS02006284           JUNCTION     0.37     0.65     9.04     0  03:02        0.64
  WS02006287           JUNCTION     0.10     0.39     9.34     0  03:02        0.39
  WSF200               JUNCTION     0.22     0.44     5.67     0  03:04        0.44
  HS02004901           JUNCTION     0.13     0.38    10.20     0  03:01        0.37
  HS02004881           JUNCTION     0.01     0.05     9.08     0  03:01        0.05
  HS02004876           JUNCTION     0.04     0.16     9.19     0  03:01        0.16
  HS02004870           JUNCTION     0.02     0.09     9.38     0  03:01        0.09
  HS02004862           JUNCTION     0.02     0.11     9.49     0  03:01        0.11
  HS02004856           JUNCTION     0.08     0.15     9.58     0  03:01        0.15
  HS02004852           JUNCTION     0.01     0.07     9.59     0  03:02        0.07
  HS02004848           JUNCTION     0.01     0.07     9.67     0  03:01        0.07
  HS02004842           JUNCTION     0.33     0.40     9.67     0  03:01        0.40
  HS02004837           JUNCTION     0.03     0.09     9.67     0  03:01        0.09
  HS02004830           JUNCTION     0.04     0.10     9.57     0  03:01        0.10
  HS02004824           JUNCTION     0.03     0.13     9.53     0  03:02        0.13
  HS02004817           JUNCTION     0.44     0.69     9.54     0  03:02        0.69
  HS02004807           JUNCTION     0.13     0.36     9.53     0  03:02        0.36
  HS02004802           JUNCTION     0.17     0.39     9.52     0  03:02        0.39
  HS02004799           JUNCTION     0.12     0.46     9.68     0  03:01        0.46
  HS02004792           JUNCTION     0.04     0.22     9.74     0  03:01        0.21
  HS02004788           JUNCTION     0.03     0.16    10.05     0  03:02        0.16
  HS02004785           JUNCTION     0.05     0.25    10.15     0  03:02        0.25
  HS02004777           JUNCTION     0.15     0.39    10.19     0  03:01        0.39
  HS02004770           JUNCTION     0.12     0.37    10.20     0  03:01        0.36
  HS02004480           JUNCTION     0.08     0.38     9.62     0  03:01        0.38
  HS02004479           JUNCTION     0.12     0.42     9.62     0  03:01        0.42
  HS02004478           JUNCTION     0.06     0.28     9.50     0  03:01        0.28
  YS02001745           JUNCTION     0.73     0.96     8.48     0  03:01        0.96
  YS02001748           JUNCTION     1.13     1.54     8.62     0  02:33        1.39
  YS02001751           JUNCTION     1.31     1.59     8.47     0  03:00        1.57
  YS02001754           JUNCTION     1.56     1.85     8.45     0  03:00        1.84
  YS02001762           JUNCTION     1.76     2.05     8.45     0  03:01        2.04
  YS02001765           JUNCTION     1.71     2.00     8.45     0  03:01        1.98
  YS02001767           JUNCTION     1.67     1.96     8.45     0  03:01        1.94
  YS02001770           JUNCTION     1.67     1.94     8.44     0  03:01        1.93
  YS02001774           JUNCTION     1.74     1.99     8.41     0  03:03        1.98
  YS02001779           JUNCTION     1.48     1.68     8.37     0  02:41        1.68
  YS02001882           JUNCTION     0.56     1.63     8.35     0  03:00        1.63
  YS02001884           JUNCTION     0.65     1.74     8.36     0  03:00        1.73
  YS02001759           JUNCTION     1.79     2.08     8.45     0  03:00        2.07
  YS02001887           JUNCTION     0.73     1.81     8.35     0  03:01        1.80
  YS02001890           JUNCTION     0.76     1.81     8.32     0  02:49        1.81
  YS02001898           JUNCTION     0.53     1.56     8.30     0  03:01        1.56
  YS02001901           JUNCTION     0.65     1.68     8.29     0  03:01        1.67
  YS02001904           JUNCTION     0.63     1.64     8.27     0  02:54        1.63
  YS02001907           JUNCTION     0.96     1.96     8.25     0  02:48        1.96
  YS02001910           JUNCTION     0.75     1.79     8.30     0  02:49        1.78
  YS02001915           JUNCTION     0.54     1.60     8.32     0  02:49        1.58
  YS02001918           JUNCTION     0.29     1.30     8.37     0  02:49        1.27
  YS02001619           JUNCTION     1.27     1.48     8.41     0  03:00        1.48
  YS02001629           JUNCTION     1.62     1.85     8.40     0  02:40        1.84
  YS02001641           JUNCTION     1.72     1.94     8.38     0  02:40        1.93
  YS02001644           JUNCTION     1.72     1.92     8.35     0  02:39        1.92
  YS02001652           JUNCTION     1.57     2.16     8.76     0  02:43        1.89
  YS02001655           JUNCTION     1.34     2.18     9.03     0  02:43        1.68
  YS02001920           JUNCTION     0.40     1.39     8.39     0  02:49        1.34
  YS02001923           JUNCTION     0.23     1.15     8.41     0  02:49        1.11
  YS02001926           JUNCTION     0.29     0.96     8.41     0  02:49        0.92
  YS02001929           JUNCTION     0.17     0.72     8.41     0  02:49        0.70
  YS02001658           JUNCTION     1.07     2.30     9.44     0  02:43        1.42
  YS02001661           JUNCTION     0.84     2.46     9.86     0  02:43        1.17
  YS02001664           JUNCTION     0.38     0.58     8.50     0  02:43        0.56
  YS02001622           JUNCTION     1.29     1.50     8.41     0  02:58        1.50
  YS02001633           JUNCTION     1.71     1.95     8.41     0  02:40        1.94
  YS02001649           JUNCTION     1.77     2.05     8.44     0  02:43        2.05
  YS02001757           JUNCTION     1.89     2.18     8.44     0  03:00        2.18
  YS02001895           JUNCTION     0.52     1.57     8.31     0  02:52        1.56
  YS02001625           JUNCTION     1.57     1.78     8.38     0  02:39        1.78
  YS02163301           JUNCTION     1.65     1.88     8.40     0  02:40        1.88
  YS02163601           JUNCTION     1.76     2.00     8.39     0  02:40        1.98
  YS02164001           JUNCTION     1.70     1.93     8.39     0  02:40        1.91
  YS02001647           JUNCTION     1.55     1.81     8.42     0  02:45        1.79
  YSB1154              JUNCTION     0.26     0.57     9.62     0  03:01        0.57
  YSB6556              JUNCTION     0.15     0.45     9.62     0  03:02        0.45
  YSB1174              JUNCTION     0.21     0.51     9.62     0  03:01        0.51
  YSB1171              JUNCTION     0.41     0.72     9.62     0  03:01        0.72
  YS02006553           JUNCTION     0.96     1.97     8.25     0  03:00        1.97
  YS02006561           JUNCTION     0.32     1.08     7.74     0  03:00        1.07
  YS02006556           JUNCTION     0.92     1.93     8.25     0  03:00        1.92
  YS02006558           JUNCTION     0.97     1.98     8.24     0  03:00        1.97
  YS02001783           JUNCTION     0.54     1.47     7.61     0  03:03        1.45
  YS02001784           JUNCTION     0.56     1.40     7.47     0  03:00        1.39
  YS02001786           JUNCTION     0.50     1.24     7.27     0  03:00        1.23
  YS02001788           JUNCTION     0.44     1.13     7.11     0  02:22        1.09
  YS02001790           JUNCTION     0.56     1.73     7.37     0  02:21        1.25
  YS02001791           JUNCTION     0.53     1.60     7.07     0  06:16        1.22
  YS02001793           JUNCTION     0.74     1.91     6.74     0  06:12        1.79
  WSC                  OUTFALL      0.34     0.48     1.15     0  03:07        0.48
  JK-storage           STORAGE      2.82     5.80     6.60     0  02:21        5.80
  CC-storage           STORAGE      1.15     1.44     8.44     0  03:09        1.44
  XR-storage           STORAGE      6.64     7.72     5.72     0  02:59        7.72
  
  
  *******************
  Node Inflow Summary
  *******************
  
  -------------------------------------------------------------------------------------------------
                                  Maximum  Maximum                  Lateral       Total        Flow
                                  Lateral    Total  Time of Max      Inflow      Inflow     Balance
                                   Inflow   Inflow   Occurrence      Volume      Volume       Error
  Node                 Type           LPS      LPS  days hr:min    10^6 ltr    10^6 ltr     Percent
  -------------------------------------------------------------------------------------------------
  WS02001211           JUNCTION      7.35   390.89     0  03:21       0.207        10.1       0.404
  WS02001212           JUNCTION      0.00   394.39     0  03:21           0          10       0.250
  WS02001213           JUNCTION      0.00   397.47     0  03:21           0          10       0.287
  WS02003069           JUNCTION      0.32  1323.53     0  03:05     0.00902          19       0.196
  WS02003072           JUNCTION      0.00  1323.05     0  03:05           0        18.9       0.231
  WS02003073           JUNCTION      1.82  1325.52     0  03:06      0.0514        18.9       0.268
  WS02003060           JUNCTION     16.53  1323.11     0  03:04       0.466          19       0.184
  WS02003066           JUNCTION      0.00   939.20     0  03:04           0        8.58       0.058
  WS02003059           JUNCTION      0.00   401.53     0  03:21           0        9.99       0.409
  WS02003067           JUNCTION      0.00   938.29     0  03:04           0        8.59       0.119
  WS02004401           JUNCTION      0.00   942.72     0  03:02           0        8.85       0.266
  WS02004402           JUNCTION      0.00   942.73     0  03:02           0        8.83       0.248
  WS02004403           JUNCTION      0.00   942.53     0  03:02           0        8.81       0.224
  WS02004404           JUNCTION      0.16   943.18     0  03:02     0.00457        8.79       0.165
  WS02004406           JUNCTION      0.00   943.93     0  03:02           0        8.76       0.405
  WS02004409           JUNCTION      0.00   941.76     0  03:03           0        8.71       0.220
  WS02004410           JUNCTION      0.00   938.53     0  03:03           0        8.69       0.244
  WS02004411           JUNCTION      0.00   937.42     0  03:03           0        8.67       0.248
  WS02004412           JUNCTION      0.00   937.20     0  03:03           0        8.65       0.262
  WS02004413           JUNCTION      0.00   938.00     0  03:04           0        8.63       0.380
  WS02004405           JUNCTION      0.04   943.77     0  03:02     0.00107        8.78       0.247
  WS02006109           JUNCTION      1.23   918.59     0  03:02      0.0347         8.9       0.213
  WS02006110           JUNCTION      0.00   918.61     0  03:02           0        8.88       0.237
  WS02006111           JUNCTION      0.00   918.09     0  03:02           0        8.85       0.056
  WS02006112           JUNCTION     30.67   942.92     0  03:02      0.0853        8.93       0.367
  WS02006113           JUNCTION      0.00   918.58     0  03:02           0        8.86       0.135
  WS02006115           JUNCTION      0.00   942.91     0  03:02           0        8.89       0.264
  WS02006116           JUNCTION      0.00   942.80     0  03:02           0        8.87       0.227
  WS02006230           JUNCTION     10.28   533.20     0  07:10        0.29        6.48       0.247
  WS02006231           JUNCTION      0.00   522.69     0  07:13           0         6.2       0.216
  WS02006232           JUNCTION      0.00   522.83     0  07:10           0        6.22       0.295
  WS02006234           JUNCTION      0.00   523.29     0  07:13           0        6.23       0.169
  WS02006235           JUNCTION      0.00   523.82     0  07:13           0        6.32       0.185
  WS02006238           JUNCTION      0.00   394.03     0  07:50           0        2.75       0.314
  WS02006240           JUNCTION      0.00   394.38     0  07:49           0         2.7       0.634
  WS02006242           JUNCTION      0.00   394.52     0  07:49           0        2.69       0.709
  WS02006243           JUNCTION      0.00   394.24     0  07:49           0        2.69       0.601
  WS02006245           JUNCTION      0.00   395.00     0  07:49           0         2.7       0.645
  WS02006247           JUNCTION      0.00   394.78     0  07:49           0        2.71       0.433
  WS02006248           JUNCTION      0.00   394.74     0  07:50           0        2.72       0.308
  WS02006249           JUNCTION      0.00   426.99     0  07:09           0        2.85       0.607
  WS02006239           JUNCTION      0.00   393.87     0  07:49           0        2.72       0.346
  WS02006251           JUNCTION      0.08   410.16     0  07:09     0.00217        2.91       0.576
  WS02006252           JUNCTION      0.00   400.00     0  07:10           0         2.4       0.022
  WS02006253           JUNCTION      3.75   143.67     0  03:01      0.0103        0.52       2.428
  WS02006256           JUNCTION      0.00   983.00     0  02:40           0        10.3      -0.009
  WS02004138           JUNCTION      0.00   380.00     0  00:00           0        9.92       0.062
  WS02004139           JUNCTION      0.32   395.85     0  00:00     0.00905        9.92       0.462
  WS02004407           JUNCTION      0.00   944.69     0  03:02           0        8.72       0.099
  WS02006228           JUNCTION      0.00   917.41     0  03:02           0        8.88       0.180
  WS02006229           JUNCTION      0.00   926.51     0  03:01           0        8.89       0.167
  WS02006280           JUNCTION      0.00   679.99     0  03:02           0        2.43       0.011
  WS02006284           JUNCTION      0.10   678.84     0  03:02      0.0027        2.43       0.044
  WS02006287           JUNCTION      0.00   677.57     0  03:02           0        2.43       0.032
  WSF200               JUNCTION      0.00   939.44     0  03:04           0        8.58       0.055
  HS02004901           JUNCTION     37.63    37.63     0  03:01       0.103       0.103       1.742
  HS02004881           JUNCTION     14.26   140.51     0  03:01      0.0422       0.463       0.077
  HS02004876           JUNCTION     25.66   127.65     0  03:01      0.0814       0.422       0.130
  HS02004870           JUNCTION     26.26   103.62     0  03:01      0.0799        0.34       0.036
  HS02004862           JUNCTION     25.49    79.36     0  03:01      0.0888       0.261       0.067
  HS02004856           JUNCTION     19.64    55.39     0  03:01      0.0601       0.173       0.845
  HS02004852           JUNCTION      0.00    37.84     0  03:01           0       0.113       0.053
  HS02004848           JUNCTION     55.75    55.75     0  03:01       0.197       0.197       0.029
  HS02004842           JUNCTION      0.00    16.85     0  03:01           0       0.097      15.491
  HS02004837           JUNCTION     50.35    65.69     0  03:01       0.318       0.402       0.205
  HS02004830           JUNCTION      0.15    64.79     0  03:01     0.00423       0.392       0.316
  HS02004824           JUNCTION     65.57   128.43     0  03:01       0.251       0.642       0.086
  HS02004817           JUNCTION      0.60   124.46     0  03:01      0.0169       0.658       2.599
  HS02004807           JUNCTION     48.45   165.69     0  03:01       0.147       0.788       0.555
  HS02004802           JUNCTION      0.00   165.30     0  03:04           0       0.785       0.507
  HS02004799           JUNCTION     38.67   445.93     0  03:01       0.119        1.42       0.191
  HS02004792           JUNCTION    184.82   411.72     0  03:01        0.54         1.3       0.034
  HS02004788           JUNCTION     58.68   233.51     0  03:01       0.219       0.758       0.053
  HS02004785           JUNCTION      0.15   182.24     0  03:01     0.00423        0.54       0.094
  HS02004777           JUNCTION      0.03   185.02     0  03:01    0.000846       0.541       0.972
  HS02004770           JUNCTION    154.22   188.92     0  03:01       0.441       0.542       0.578
  HS02004480           JUNCTION      0.00   517.12     0  03:01           0        1.66       0.068
  HS02004479           JUNCTION      0.00    75.59     0  03:02           0       0.258       0.287
  HS02004478           JUNCTION      0.00   676.98     0  03:02           0        2.43       0.010
  YS02001745           JUNCTION    438.14   438.14     0  03:01        3.01        3.02       0.334
  YS02001748           JUNCTION      0.04   560.47     0  02:32     0.00127        3.01       0.712
  YS02001751           JUNCTION      0.01   441.74     0  03:01     0.00031        2.98       0.801
  YS02001754           JUNCTION      0.26   442.97     0  03:01     0.00733        2.96       0.846
  YS02001762           JUNCTION      0.00   313.46     0  02:42           0        2.13       1.010
  YS02001765           JUNCTION      0.00   313.35     0  02:43           0        2.13       1.159
  YS02001767           JUNCTION      0.54   313.26     0  02:43      0.0151        2.15       1.695
  YS02001770           JUNCTION    552.50   715.83     0  03:07        3.37        4.18       0.765
  YS02001774           JUNCTION      0.00   715.94     0  03:07           0        2.83       0.904
  YS02001779           JUNCTION      0.01   715.99     0  03:07    0.000141         2.8       0.567
  YS02001882           JUNCTION      0.00    17.32     0  04:14           0      0.0199      12.161
  YS02001884           JUNCTION      0.00    26.13     0  02:37           0      0.0567      12.097
  YS02001759           JUNCTION    536.49   621.24     0  02:43        3.11        4.39       0.526
  YS02001887           JUNCTION    679.97   680.10     0  03:01        3.56         3.6       0.239
  YS02001890           JUNCTION      0.00   680.17     0  03:01           0        3.55       0.261
  YS02001898           JUNCTION      0.00   517.66     0  02:59           0        3.45       0.090
  YS02001901           JUNCTION      0.00   517.84     0  02:58           0        3.45       0.198
  YS02001904           JUNCTION      0.00   517.66     0  02:58           0        3.44       0.183
  YS02001907           JUNCTION      0.00  1102.18     0  03:02           0        7.77       0.307
  YS02001910           JUNCTION      0.00   585.64     0  03:02           0        4.34       0.274
  YS02001915           JUNCTION    389.26   585.32     0  03:02        2.52        4.35       0.137
  YS02001918           JUNCTION      0.00   267.52     0  02:50           0        1.84       0.075
  YS02001619           JUNCTION    380.66   380.66     0  03:01        2.51        2.51       0.483
  YS02001629           JUNCTION      0.00   197.39     0  02:39           0        1.59       1.833
  YS02001641           JUNCTION      0.00   415.77     0  02:39           0        4.45       0.476
  YS02001644           JUNCTION    416.76  1564.05     0  03:01         2.9        11.8       0.228
  YS02001652           JUNCTION      0.00   498.21     0  03:01           0        2.63       0.899
  YS02001655           JUNCTION      0.15   498.37     0  03:01     0.00434        2.65       0.927
  YS02001920           JUNCTION      2.87   267.18     0  02:50      0.0809        1.84       0.156
  YS02001923           JUNCTION      0.04   240.43     0  02:50     0.00106        1.76       0.058
  YS02001926           JUNCTION      0.05   204.58     0  03:02     0.00147        1.75       0.189
  YS02001929           JUNCTION    189.18   189.18     0  03:01        1.75        1.75       0.037
  YS02001658           JUNCTION      0.00   569.61     0  02:29           0        2.68       0.805
  YS02001661           JUNCTION      0.00   678.04     0  02:43           0        3.08      -0.014
  YS02001664           JUNCTION    492.63   492.63     0  03:01        2.67        3.07       0.165
  YS02001622           JUNCTION      0.00   380.91     0  03:01           0         2.5       1.288
  YS02001633           JUNCTION    423.29   423.29     0  03:01        2.99        4.52       0.714
  YS02001649           JUNCTION      0.00   871.26     0  02:40           0        6.71       0.560
  YS02001757           JUNCTION      0.00  1677.65     0  02:40           0        8.86       1.046
  YS02001895           JUNCTION      0.00   517.74     0  02:58           0        3.45       0.146
  YS02001625           JUNCTION      0.00   406.77     0  03:01           0        2.48       1.597
  YS02163301           JUNCTION      0.00   202.46     0  02:32           0        1.57       1.572
  YS02163601           JUNCTION      0.11   415.06     0  02:39      0.0031        4.48       0.678
  YS02164001           JUNCTION      0.00   415.25     0  02:39           0        4.46       0.457
  YS02001647           JUNCTION      0.00   791.66     0  03:10           0        5.97       0.474
  YSB1154              JUNCTION     44.76    44.76     0  03:01       0.144       0.144       1.018
  YSB6556              JUNCTION      0.00    43.26     0  03:01           0       0.145       0.869
  YSB1174              JUNCTION     38.10    38.10     0  03:01       0.106       0.107       1.223
  YSB1171              JUNCTION      0.00    76.86     0  03:01           0       0.257       2.526
  YS02006553           JUNCTION      0.00   709.25     0  03:46           0        6.75       0.222
  YS02006561           JUNCTION      0.00  1041.51     0  02:48           0        9.97       0.006
  YS02006556           JUNCTION      0.00   709.43     0  03:46           0        6.75       0.164
  YS02006558           JUNCTION    587.14  1041.59     0  02:48        3.28          10       0.052
  YS02001783           JUNCTION      0.00  1041.46     0  02:48           0        9.97       0.023
  YS02001784           JUNCTION      1.06  1042.41     0  02:48      0.0299          10       0.036
  YS02001786           JUNCTION      0.06  1042.31     0  02:48     0.00159          10       0.033
  YS02001788           JUNCTION      0.07  1042.34     0  02:48       0.002          10       0.022
  YS02001790           JUNCTION      0.15  1042.76     0  02:48     0.00437          10       0.015
  YS02001791           JUNCTION      0.00  1042.81     0  02:48           0          10       0.009
  YS02001793           JUNCTION      0.00  1042.82     0  02:48           0          10      -0.020
  WSC                  OUTFALL       0.00  1326.71     0  03:07           0        18.9       0.000
  JK-storage           STORAGE       0.00  1042.74     0  02:48           0        10.2     -10.134
  CC-storage           STORAGE       0.00  1678.34     0  02:40           0        6.12       1.023
  XR-storage           STORAGE    1024.87  1024.87     0  03:01        12.7        13.3      -0.004
  
  
  **********************
  Node Surcharge Summary
  **********************
  
  Surcharging occurs when water rises above the top of the highest conduit.
  ---------------------------------------------------------------------
                                               Max. Height   Min. Depth
                                   Hours       Above Crown    Below Rim
  Node                 Type      Surcharged         Meters       Meters
  ---------------------------------------------------------------------
  WS02004401           JUNCTION        0.46          0.255        1.405
  WS02004402           JUNCTION        0.49          0.242        1.498
  WS02004403           JUNCTION        0.49          0.214        1.816
  WS02004404           JUNCTION        0.65          0.256        2.524
  WS02004406           JUNCTION        0.60          0.176        2.274
  WS02004413           JUNCTION        0.15          0.023        2.177
  WS02004405           JUNCTION        0.63          0.229        2.571
  WS02006109           JUNCTION        2.88          0.846        0.974
  WS02006110           JUNCTION        1.03          0.550        1.300
  WS02006111           JUNCTION        0.09          0.098        1.772
  WS02006112           JUNCTION        1.16          0.582        1.098
  WS02006113           JUNCTION        0.11          0.139        1.791
  WS02006115           JUNCTION        0.35          0.233        2.017
  WS02006116           JUNCTION        0.37          0.224        2.066
  WS02006230           JUNCTION        0.86          0.808        0.762
  WS02006231           JUNCTION        1.03          0.822        0.708
  WS02006232           JUNCTION        2.72          0.936        0.544
  WS02006234           JUNCTION        1.48          0.813        0.427
  WS02006235           JUNCTION        2.06          0.835        0.455
  WS02006238           JUNCTION        2.21          0.843        0.587
  WS02006240           JUNCTION        1.20          0.700        0.690
  WS02006242           JUNCTION        1.39          0.709        0.111
  WS02006243           JUNCTION        1.00          0.579        0.191
  WS02006245           JUNCTION        0.91          0.573        0.277
  WS02006247           JUNCTION        0.92          0.539        0.221
  WS02006248           JUNCTION        0.78          0.380        0.000
  WS02006249           JUNCTION        0.82          0.390        0.000
  WS02006239           JUNCTION        1.45          0.756        0.534
  WS02006251           JUNCTION        0.38          0.258        0.922
  WS02006252           JUNCTION        0.93          0.442        0.658
  WS02006253           JUNCTION        0.41          0.313        2.167
  WS02006256           JUNCTION        6.84          2.050        0.000
  WS02006228           JUNCTION        2.80          1.011        1.189
  YS02001748           JUNCTION        5.22          0.462        0.728
  YS02001751           JUNCTION        5.38          0.587        0.613
  YS02001754           JUNCTION        5.58          0.795        0.355
  YS02001762           JUNCTION        5.75          1.052        0.098
  YS02001765           JUNCTION        5.72          1.000        0.100
  YS02001767           JUNCTION        5.70          0.958        0.072
  YS02001770           JUNCTION        5.68          0.911        0.009
  YS02001774           JUNCTION        5.74          0.991        0.059
  YS02001779           JUNCTION        5.56          0.680        0.000
  YS02001882           JUNCTION        1.12          0.634        0.196
  YS02001884           JUNCTION        1.15          0.678        0.192
  YS02001759           JUNCTION        5.78          1.083        0.127
  YS02001887           JUNCTION        1.22          0.763        0.187
  YS02001890           JUNCTION        1.24          0.760        0.000
  YS02001898           JUNCTION        1.07          0.533        0.207
  YS02001901           JUNCTION        1.19          0.679        0.191
  YS02001904           JUNCTION        1.17          0.639        0.211
  YS02001907           JUNCTION        1.88          0.950        0.000
  YS02001910           JUNCTION        1.29          0.791        0.309
  YS02001915           JUNCTION        1.10          0.602        0.398
  YS02001918           JUNCTION        0.89          0.301        0.509
  YS02001619           JUNCTION        5.38          0.485        0.125
  YS02001629           JUNCTION        5.39          0.469        0.001
  YS02001641           JUNCTION        5.73          0.938        0.162
  YS02001644           JUNCTION        5.73          0.920        0.000
  YS02001652           JUNCTION        5.61          1.130        0.000
  YS02001655           JUNCTION        5.40          1.179        0.021
  YS02001920           JUNCTION        0.92          0.385        0.755
  YS02001658           JUNCTION        5.25          1.300        0.000
  YS02001661           JUNCTION        0.09          1.390        0.000
  YS02001622           JUNCTION        5.41          0.503        0.117
  YS02001633           JUNCTION        5.71          0.934        0.126
  YS02001649           JUNCTION        5.75          1.050        0.000
  YS02001757           JUNCTION        5.86          1.182        0.028
  YS02001895           JUNCTION        1.08          0.566        0.184
  YS02001625           JUNCTION        5.64          0.780        0.000
  YS02163301           JUNCTION        5.69          0.882        0.148
  YS02163601           JUNCTION        5.75          0.996        0.084
  YS02164001           JUNCTION        5.72          0.930        0.170
  YS02001647           JUNCTION        5.62          0.805        0.095
  YS02006553           JUNCTION        1.95          0.971        0.219
  YS02006561           JUNCTION        0.91          0.275        0.875
  YS02006556           JUNCTION        1.51          0.894        0.456
  YS02006558           JUNCTION        1.47          0.877        0.523
  YS02001783           JUNCTION        1.49          0.668        0.932
  YS02001784           JUNCTION        1.47          0.600        0.890
  YS02001786           JUNCTION        1.42          0.440        0.990
  YS02001788           JUNCTION        1.25          0.333        1.147
  YS02001790           JUNCTION        2.23          0.929        0.228
  YS02001791           JUNCTION        2.32          0.800        1.120
  YS02001793           JUNCTION        2.58          0.909        1.691
  
  
  *********************
  Node Flooding Summary
  *********************
  
  Flooding refers to all water that overflows a node, whether it ponds or not.
  --------------------------------------------------------------------------
                                                             Total   Maximum
                                 Maximum   Time of Max       Flood    Ponded
                        Hours       Rate    Occurrence      Volume     Depth
  Node                 Flooded       LPS   days hr:min    10^6 ltr    Meters
  --------------------------------------------------------------------------
  WS02006248              0.05     20.39      0  03:02       0.002     0.000
  WS02006249              0.39    142.05      0  03:04       0.111     0.000
  WS02006256              4.10    832.03      0  03:02       6.660     0.000
  YS02001779              3.22    715.98      0  03:07       2.781     0.000
  YS02001890              0.34    163.75      0  03:01       0.085     0.000
  YS02001907              0.76    691.15      0  03:02       1.013     0.000
  YS02001644              4.46   1563.34      0  03:01      10.260     0.000
  YS02001652              0.01     15.28      0  02:43       0.000     0.000
  YS02001658              0.01     12.06      0  02:43       0.000     0.000
  YS02001661              0.01    144.22      0  02:43       0.000     0.000
  YS02001649              0.01     38.40      0  02:43       0.000     0.000
  YS02001625              1.37    406.49      0  03:01       0.855     0.000
  JK-storage              0.84    694.59      0  02:30       0.938     0.000
  XR-storage              3.46    644.83      0  03:01       2.615     0.000
  
  
  **********************
  Storage Volume Summary
  **********************
  
  --------------------------------------------------------------------------------------------------
                         Average     Avg  Evap Exfil       Maximum     Max    Time of Max    Maximum
                          Volume    Pcnt  Pcnt  Pcnt        Volume    Pcnt     Occurrence    Outflow
  Storage Unit           1000 m3    Full  Loss  Loss       1000 m3    Full    days hr:min        LPS
  --------------------------------------------------------------------------------------------------
  JK-storage               0.142      49     0     0         0.291     100       0  02:21     983.00
  CC-storage               3.214      20     0     0         4.013      26       0  03:09     400.00
  XR-storage               0.796      86     0     0         0.926     100       0  02:59     380.00
  
  
  ***********************
  Outfall Loading Summary
  ***********************
  
  ---------------------------------------------------------------------------------------------------------------------------------
                         Flow       Avg       Max       Total         Total         Total         Total         Total         Total
                         Freq      Flow      Flow      Volume           COD            SS            TN            TP         NH4-N
  Outfall Node           Pcnt       LPS       LPS    10^6 ltr            kg            kg            kg            kg            kg
  ---------------------------------------------------------------------------------------------------------------------------------
  WSC                   99.98    731.86   1326.71      18.882      2291.113      3956.513       147.011        17.317        88.986
  ---------------------------------------------------------------------------------------------------------------------------------
  System                99.98    731.86   1326.71      18.882      2291.113      3956.513       147.011        17.317        88.986
  
  
  ********************
  Link Flow Summary
  ********************
  
  -----------------------------------------------------------------------------
                                 Maximum  Time of Max   Maximum    Max/    Max/
                                  |Flow|   Occurrence   |Veloc|    Full    Full
  Link                 Type          LPS  days hr:min     m/sec    Flow   Depth
  -----------------------------------------------------------------------------
  WS02003066WSF200     CONDUIT    939.44     0  03:04      3.00    0.16    0.32
  WS02006287WS02006284 CONDUIT    678.75     0  03:02      2.38    0.31    0.39
  WS02006284WS02006280 CONDUIT    679.99     0  03:02      2.62    0.28    0.37
  WS02006280WS02006229 CONDUIT    680.00     0  03:02      3.91    0.15    0.51
  WS02006229WS02006228 CONDUIT    917.41     0  03:02      1.83    3.04    1.00
  WS02006256WS02006235 CONDUIT    288.92     0  00:00      4.23    3.06    1.00
  WS02006253WS02006251 CONDUIT    156.37     0  03:01      0.60    0.47    1.00
  WS02006252WS02006251 CONDUIT    401.04     0  07:18      3.19    1.47    1.00
  WS02006251WS02006249 CONDUIT    426.99     0  07:09      1.11    1.23    1.00
  WS02006249WS02006248 CONDUIT    394.74     0  07:50      1.10    2.16    1.00
  WS02006248WS02006247 CONDUIT    394.78     0  07:49      1.04    0.86    1.00
  WS02006247WS02006245 CONDUIT    395.00     0  07:49      1.03    3.13    1.00
  WS02006245WS02006243 CONDUIT    394.24     0  07:49      1.05    1.17    1.00
  WS02006243WS02006242 CONDUIT    394.52     0  07:49      1.03    0.84    1.00
  WS02006242WS02006240 CONDUIT    394.38     0  07:49      1.02    1.57    1.00
  WS02006240WS02006239 CONDUIT    393.87     0  07:49      1.02    1.24    1.00
  WS02006239WS02006238 CONDUIT    394.03     0  07:50      1.02    1.26    1.00
  WS02006238WS02006235 CONDUIT    393.75     0  07:50      1.45    0.88    1.00
  WS02006235WS02006234 CONDUIT    523.29     0  07:13      1.36    5.52    1.00
  WS02006234WS02006232 CONDUIT    522.83     0  07:10      1.39    1.06    1.00
  WS02006232WS02006231 CONDUIT    522.69     0  07:13      1.36    1.10    1.00
  WS02006231WS02006230 CONDUIT    522.93     0  07:10      1.36    7.93    1.00
  WS02006230WS02006229 CONDUIT    534.77     0  07:10      1.39   11.90    1.00
  WS02006228WS02006109 CONDUIT    917.36     0  03:02      1.83    4.01    1.00
  WS02006116WS02004401 CONDUIT    942.72     0  03:02      1.20    1.30    1.00
  WS02006115WS02006116 CONDUIT    942.80     0  03:02      1.20    1.21    1.00
  WS02006113WS02006111 CONDUIT    918.09     0  03:02      2.60    1.10    1.00
  WS02006112WS02006115 CONDUIT    942.91     0  03:02      1.20    0.56    1.00
  WS02006111WS02006112 CONDUIT    919.09     0  03:02      1.83    0.44    1.00
  WS02006110WS02006113 CONDUIT    918.58     0  03:02      1.83    0.84    1.00
  WS02006109WS02006110 CONDUIT    918.61     0  03:02      1.83    1.77    1.00
  WS02004411WS02004412 CONDUIT    937.20     0  03:03      1.24    1.33    0.92
  WS02004401WS02004402 CONDUIT    942.73     0  03:02      1.20    1.13    1.00
  WS02004413WS02003067 CONDUIT    938.29     0  03:04      1.55    0.40    0.72
  WS02004412WS02004413 CONDUIT    938.00     0  03:04      1.22    0.63    0.95
  WS02004410WS02004411 CONDUIT    937.42     0  03:03      1.22    1.28    0.94
  WS02004409WS02004410 CONDUIT    938.53     0  03:03      1.22    1.21    0.95
  WS02004407WS02004409 CONDUIT    941.76     0  03:03      1.68    0.33    0.68
  WS02004406WS02004407 CONDUIT    944.69     0  03:02      1.61    0.42    0.70
  WS02004405WS02004406 CONDUIT    943.93     0  03:02      1.20    1.86    1.00
  WS02004404WS02004405 CONDUIT    943.73     0  03:02      1.20    9.25    1.00
  WS02004403WS02004404 CONDUIT    943.02     0  03:02      1.20    0.68    1.00
  WS02004402WS02004403 CONDUIT    942.53     0  03:02      1.20    1.35    1.00
  WS02004139WS02001211 CONDUIT    383.54     0  03:21      0.90    0.48    0.64
  WS02004138WS02004139 CONDUIT    395.52     0  00:00      3.64    0.08    0.46
  WS02003067WS02003066 CONDUIT    939.20     0  03:04      1.65    0.30    0.50
  WS02001213WS02003059 CONDUIT    401.53     0  03:21      0.89    0.66    0.87
  WS02001212WS02001213 CONDUIT    397.47     0  03:21      1.32    0.61    0.55
  WS02001211WS02001212 CONDUIT    394.39     0  03:21      0.78    0.30    0.71
  WS02003072WS02003073 CONDUIT   1323.70     0  03:06      1.96    2.86    0.58
  WS02003069WS02003072 CONDUIT   1323.05     0  03:05      1.81    0.64    0.62
  WS02003060WS02003069 CONDUIT   1323.21     0  03:05      2.02    0.52    0.56
  WS02003059WS02003060 CONDUIT    407.12     0  03:20      0.95    0.27    0.77
  HS02004901HS02004770 CONDUIT     37.24     0  03:01      0.10    0.14    0.53
  HS02004876HS02004881 CONDUIT    127.62     0  03:01      1.21    1.36    0.15
  HS02004870HS02004876 CONDUIT    103.08     0  03:01      0.82    0.07    0.18
  HS02004842HS02004848 CONDUIT     16.85     0  03:01      0.07    0.01    0.33
  HS02004837HS02004842 CONDUIT     17.91     0  03:03      0.42    0.01    0.35
  HS02004830HS02004837 CONDUIT     64.64     0  03:01      0.67    0.06    0.14
  HS02004824HS02004830 CONDUIT     64.10     0  03:01      0.62    0.08    0.16
  HS02004817HS02004824 CONDUIT    123.86     0  03:01      0.31    0.06    0.58
  HS02004770HS02004777 CONDUIT    184.99     0  03:01      0.49    0.34    0.54
  HS02004799HS02004480 CONDUIT    444.30     0  03:01      1.07    0.56    0.60
  HS02004792HS02004799 CONDUIT    408.36     0  03:01      1.20    0.25    0.49
  HS02004788HS02004792 CONDUIT    232.95     0  03:02      1.28    0.15    0.26
  HS02004785HS02004788 CONDUIT    181.78     0  03:02      0.91    1.37    0.29
  HS02004777HS02004785 CONDUIT    182.09     0  03:01      0.57    0.22    0.45
  HS02004480HS02004478 CONDUIT    517.28     0  03:01      1.55    2.18    0.48
  HS02004479HS02004480 CONDUIT     77.39     0  03:02      0.30    0.07    0.57
  HS02004862HS02004870 CONDUIT     79.01     0  03:01      0.80    0.09    0.14
  HS02004848HS02004852 CONDUIT     37.84     0  03:01      0.53    0.04    0.10
  HS02004856HS02004862 CONDUIT     54.75     0  03:01      0.59    0.05    0.13
  HS02004852HS02004856 CONDUIT     37.74     0  03:02      0.34    0.04    0.16
  HS02004802HS02004478 CONDUIT    170.20     0  03:04      0.54    0.15    0.48
  HS02004478WS02006287 CONDUIT    677.57     0  03:02      2.11    0.19    0.36
  HS02004817HS02004807 CONDUIT    128.20     0  03:04      0.25    0.08    0.75
  HS02004807HS02004802 CONDUIT    165.30     0  03:04      0.46    0.32    0.53
  YS02001759YS02001757 CONDUIT    621.34     0  02:43      0.79    0.44    1.00
  YS02001762YS02001759 CONDUIT    314.02     0  02:42      0.40    0.36    1.00
  YS02001765YS02001762 CONDUIT    313.46     0  02:42      0.40    0.29    1.00
  YS02001770YS02001767 CONDUIT    312.72     0  02:43      0.40    1.24    1.00
  YS02001774YS02001770 CONDUIT    715.94     0  03:07      0.91    0.46    1.00
  YS02001779YS02001774 CONDUIT    715.99     0  03:07      0.91    0.36    1.00
  YS02001649YS02001757 CONDUIT    871.59     0  02:40      1.11    0.53    1.00
  YS02001767YS02001765 CONDUIT    313.35     0  02:43      0.40    0.39    1.00
  YS02006561YS02001783 CONDUIT   1041.46     0  02:48      2.14    0.54    1.00
  YS02001783YS02001784 CONDUIT   1041.35     0  02:48      2.07    1.44    1.00
  YS02001784YS02001785 CONDUIT   1042.26     0  02:48      2.07    2.43    1.00
  YS02001788YS02001790 CONDUIT   1042.61     0  02:48      2.44    0.77    1.00
  YS02001790YS02001791 CONDUIT   1042.81     0  02:48      2.91    1.13    1.00
  YS02001791YS02001793 CONDUIT   1042.82     0  02:48      5.76    0.45    1.00
  YS02001910YS02001907 CONDUIT    585.86     0  03:02      0.75    0.33    1.00
  YS02001786YS02001788 CONDUIT   1042.27     0  02:48      2.31    2.01    1.00
  YS02001915YS02001910 CONDUIT    585.64     0  03:02      0.75    0.29    1.00
  YS02001918YS02001915 CONDUIT    268.10     0  02:50      0.44    0.15    1.00
  YS02001923YS02001920 CONDUIT    264.31     0  02:50      0.75    0.12    1.00
  YS02001926YS02001923 CONDUIT    240.40     0  02:50      0.86    0.34    0.94
  YS02001929YS02001926 CONDUIT    204.53     0  03:02      0.92    0.10    0.84
  YS02001920YS02001918 CONDUIT    267.52     0  02:50      0.72    0.26    1.00
  YS02001629YS02163301 CONDUIT    202.46     0  02:32      0.26    0.25    1.00
  YS02001619YS02001622 CONDUIT    380.91     0  03:01      0.59    0.56    1.00
  YS02001622YS02001625 CONDUIT    380.71     0  03:01      0.48    0.20    1.00
  YS02001625YS02001629 CONDUIT    197.39     0  02:39      0.25    0.09    1.00
  YS02163301YS02001633 CONDUIT    203.29     0  02:32      0.26    0.19    1.00
  YS02163601YS02164001 CONDUIT    415.25     0  02:39      0.53    0.37    1.00
  YS02164001YS02001641 CONDUIT    415.77     0  02:39      0.53    0.57    1.00
  YS02001641YS02001644 CONDUIT    415.84     0  02:39      0.53    1.34    1.00
  YS02001647YS02001649 CONDUIT    791.66     0  03:10      1.01    0.42    1.00
  YS02006553YS02006556 CONDUIT    709.43     0  03:46      0.90    0.61    1.00
  YS02006556YS02006558 CONDUIT    709.68     0  03:46      0.90    0.56    1.00
  YSB6556YSB1171       CONDUIT     42.89     0  03:02      0.13    0.04    0.82
  YS02001907YS02006553 CONDUIT    709.25     0  03:46      0.79    0.83    1.00
  YS02006558YS02006561 CONDUIT   1041.51     0  02:48      3.68    2.30    1.00
  YS02001633YS02163601 CONDUIT    414.95     0  02:39      0.53    0.44    1.00
  YS02001644YS02001647 CONDUIT    791.71     0  03:10      1.01    0.47    1.00
  YS02001745YS02001748 CONDUIT    560.42     0  02:32      1.45    0.22    0.98
  YS02001748YS02001751 CONDUIT    441.73     0  03:01      1.03    0.22    1.00
  YS02001751YS02001754 CONDUIT    442.71     0  03:01      0.88    0.21    1.00
  YS02001754YS02001757 CONDUIT    442.10     0  03:01      0.56    0.18    1.00
  YS02001882YS02001884 CONDUIT     17.32     0  04:14      0.12    0.02    1.00
  YS02001884YS02001887 CONDUIT     26.13     0  02:37      0.08    0.03    1.00
  YS02001890YS02001895 CONDUIT    517.74     0  02:58      0.66    0.24    1.00
  YS02001895YS02001898 CONDUIT    517.66     0  02:59      0.66    0.90    1.00
  YS02001898YS02001901 CONDUIT    517.84     0  02:58      0.66    0.33    1.00
  YS02001901YS02001904 CONDUIT    517.66     0  02:58      0.66    0.80    1.00
  YS02001904YS02001907 CONDUIT    517.81     0  02:58      0.66    0.18    1.00
  YS02001887YS02001890 CONDUIT    680.17     0  03:01      0.87    1.16    1.00
  YS02001652YS02001649 CONDUIT    498.73     0  03:01      0.64    0.25    1.00
  YS02001655YS02001652 CONDUIT    498.21     0  03:01      0.94    0.24    1.00
  YS02001658YS02001655 CONDUIT    498.21     0  03:01      1.18    0.21    1.00
  YS02001661YS02001658 CONDUIT    569.61     0  02:29      1.52    0.22    1.00
  YS02001664YS02001661 CONDUIT    678.04     0  02:43      1.43    0.21    0.77
  YSB1154YSB6556       CONDUIT     43.26     0  03:01      0.18    0.08    0.73
  YSB1174YSB1171       CONDUIT     36.61     0  03:01      0.11    0.06    0.85
  YSB1171HS02004479    CONDUIT     75.59     0  03:02      0.54    0.05    0.68
  HS02004881HS02006253 CONDUIT    140.44     0  03:01      2.23    0.03    0.54
  YS02001793JiankangQianchi CONDUIT   1042.74     0  02:48     16.47    0.08    1.00
  YS02001757CaochengTiaoxuchi CONDUIT   1678.34     0  02:40      2.17    0.74    1.00
  WSF200WS02003060     CONDUIT    940.19     0  03:04      1.93    0.21    0.44
  1                    CONDUIT   1326.71     0  03:07      3.58    0.46    0.48
  CC-Pump-1            PUMP       200.00     0  04:10              1.00
  CC-Pump-2            PUMP       200.00     0  07:10              1.00
  JK-Pump-1            PUMP       300.00     0  00:00              1.00
  JK-Pump-2            PUMP       683.00     0  02:40              1.00
  XR-Pump-1            PUMP        95.00     0  00:00              1.00
  XR-Pump-2            PUMP        95.00     0  00:00              1.00
  XR-Pump-3            PUMP        95.00     0  00:00              1.00
  XR-Pump-4            PUMP        95.00     0  00:00              1.00
  
  
  ***************************
  Flow Classification Summary
  ***************************
  
  -------------------------------------------------------------------------------------
                      Adjusted    ---------- Fraction of Time in Flow Class ---------- 
                       /Actual         Up    Down  Sub   Sup   Up    Down  Norm  Inlet 
  Conduit               Length    Dry  Dry   Dry   Crit  Crit  Crit  Crit  Ltd   Ctrl  
  -------------------------------------------------------------------------------------
  WS02003066WSF200        1.00   0.01  0.02  0.00  0.00  0.97  0.00  0.00  0.68  0.00
  WS02006287WS02006284    1.00   0.03  0.01  0.00  0.64  0.32  0.00  0.00  0.65  0.00
  WS02006284WS02006280    1.00   0.04  0.00  0.00  0.00  0.00  0.00  0.96  0.00  0.00
  WS02006280WS02006229    1.00   0.04  0.00  0.00  0.01  0.02  0.00  0.92  0.01  0.00
  WS02006229WS02006228    1.00   0.00  0.00  0.00  1.00  0.00  0.00  0.00  0.00  0.00
  WS02006256WS02006235    1.00   0.00  0.00  0.00  1.00  0.00  0.00  0.00  0.00  0.00
  WS02006253WS02006251    1.00   0.02  0.02  0.00  0.96  0.00  0.01  0.00  0.00  0.00
  WS02006252WS02006251    1.00   0.19  0.00  0.00  0.05  0.00  0.75  0.00  0.00  0.00
  WS02006251WS02006249    1.00   0.00  0.00  0.00  1.00  0.00  0.00  0.00  0.25  0.00
  WS02006249WS02006248    1.00   0.00  0.01  0.00  0.88  0.00  0.11  0.00  0.00  0.00
  WS02006248WS02006247    1.00   0.01  0.00  0.00  0.99  0.00  0.00  0.00  0.16  0.00
  WS02006247WS02006245    1.00   0.01  0.00  0.00  0.99  0.00  0.00  0.00  0.00  0.00
  WS02006245WS02006243    1.00   0.00  0.00  0.00  0.94  0.00  0.00  0.06  0.00  0.00
  WS02006243WS02006242    1.00   0.00  0.00  0.00  1.00  0.00  0.00  0.00  0.27  0.00
  WS02006242WS02006240    1.00   0.00  0.00  0.00  1.00  0.00  0.00  0.00  0.00  0.00
  WS02006240WS02006239    1.00   0.00  0.00  0.00  0.94  0.00  0.00  0.05  0.01  0.00
  WS02006239WS02006238    1.00   0.00  0.00  0.00  1.00  0.00  0.00  0.00  0.13  0.00
  WS02006238WS02006235    1.00   0.00  0.00  0.00  1.00  0.00  0.00  0.00  0.00  0.00
  WS02006235WS02006234    1.00   0.00  0.00  0.00  0.96  0.00  0.04  0.00  0.00  0.00
  WS02006234WS02006232    1.00   0.00  0.00  0.00  1.00  0.00  0.00  0.00  0.09  0.00
  WS02006232WS02006231    1.00   0.00  0.00  0.00  1.00  0.00  0.00  0.00  0.00  0.00
  WS02006231WS02006230    1.00   0.00  0.00  0.00  0.66  0.00  0.34  0.00  0.00  0.00
  WS02006230WS02006229    1.00   0.00  0.00  0.00  1.00  0.00  0.00  0.00  0.00  0.00
  WS02006228WS02006109    1.00   0.00  0.00  0.00  1.00  0.00  0.00  0.00  0.00  0.00
  WS02006116WS02004401    1.00   0.01  0.00  0.00  0.99  0.00  0.00  0.00  0.00  0.00
  WS02006115WS02006116    1.00   0.01  0.00  0.00  0.99  0.00  0.00  0.00  0.00  0.00
  WS02006113WS02006111    1.00   0.01  0.00  0.00  0.04  0.95  0.00  0.00  0.18  0.00
  WS02006112WS02006115    1.00   0.01  0.00  0.00  0.99  0.00  0.00  0.00  0.00  0.00
  WS02006111WS02006112    1.00   0.01  0.00  0.00  0.99  0.00  0.00  0.00  0.90  0.00
  WS02006110WS02006113    1.00   0.00  0.00  0.00  0.99  0.00  0.00  0.00  0.00  0.00
  WS02006109WS02006110    1.00   0.00  0.00  0.00  0.99  0.00  0.00  0.00  0.00  0.00
  WS02004411WS02004412    1.00   0.02  0.00  0.00  0.98  0.00  0.00  0.00  0.00  0.00
  WS02004401WS02004402    1.00   0.01  0.00  0.00  0.99  0.00  0.00  0.00  0.00  0.00
  WS02004413WS02003067    1.00   0.02  0.01  0.00  0.00  0.00  0.97  0.00  0.00  0.00
  WS02004412WS02004413    1.00   0.02  0.00  0.00  0.98  0.00  0.00  0.00  0.01  0.00
  WS02004410WS02004411    1.00   0.02  0.00  0.00  0.98  0.00  0.00  0.00  0.00  0.00
  WS02004409WS02004410    1.00   0.02  0.00  0.00  0.98  0.00  0.00  0.00  0.02  0.00
  WS02004407WS02004409    1.00   0.02  0.00  0.00  0.98  0.00  0.00  0.00  0.95  0.00
  WS02004406WS02004407    1.00   0.00  0.02  0.00  0.98  0.00  0.00  0.00  0.00  0.00
  WS02004405WS02004406    1.00   0.00  0.00  0.00  1.00  0.00  0.00  0.00  0.00  0.00
  WS02004404WS02004405    1.00   0.00  0.00  0.00  1.00  0.00  0.00  0.00  0.00  0.00
  WS02004403WS02004404    1.00   0.00  0.01  0.00  0.99  0.00  0.00  0.00  0.00  0.00
  WS02004402WS02004403    1.00   0.01  0.00  0.00  0.99  0.00  0.00  0.00  0.00  0.00
  WS02004139WS02001211    1.00   0.00  0.00  0.00  1.00  0.00  0.00  0.00  0.00  0.00
  WS02004138WS02004139    1.00   0.00  0.00  0.00  1.00  0.00  0.00  0.00  1.00  0.00
  WS02003067WS02003066    1.00   0.03  0.00  0.00  0.97  0.00  0.00  0.00  0.00  0.00
  WS02001213WS02003059    1.00   0.00  0.00  0.00  1.00  0.00  0.00  0.00  0.00  0.00
  WS02001212WS02001213    1.00   0.00  0.00  0.00  0.91  0.00  0.09  0.00  0.00  0.00
  WS02001211WS02001212    1.00   0.00  0.00  0.00  1.00  0.00  0.00  0.00  0.00  0.00
  WS02003072WS02003073    1.00   0.00  0.00  0.00  0.00  0.00  0.00  1.00  0.00  0.00
  WS02003069WS02003072    1.00   0.00  0.00  0.00  1.00  0.00  0.00  0.00  0.10  0.00
  WS02003060WS02003069    1.00   0.00  0.00  0.00  0.99  0.01  0.00  0.00  0.08  0.00
  WS02003059WS02003060    1.00   0.00  0.00  0.00  1.00  0.00  0.00  0.00  0.01  0.00
  HS02004901HS02004770    1.00   0.04  0.00  0.00  0.96  0.00  0.00  0.00  0.00  0.00
  HS02004876HS02004881    1.00   0.01  0.00  0.00  0.91  0.08  0.00  0.00  0.00  0.00
  HS02004870HS02004876    1.00   0.00  0.00  0.00  0.99  0.00  0.00  0.00  0.95  0.00
  HS02004842HS02004848    1.00   0.00  0.04  0.00  0.96  0.00  0.00  0.00  0.54  0.00
  HS02004837HS02004842    1.00   0.00  0.00  0.00  1.00  0.00  0.00  0.00  0.11  0.00
  HS02004830HS02004837    1.00   0.00  0.00  0.00  1.00  0.00  0.00  0.00  0.99  0.00
  HS02004824HS02004830    1.00   0.00  0.00  0.00  1.00  0.00  0.00  0.00  0.01  0.00
  HS02004817HS02004824    1.00   0.00  0.00  0.00  1.00  0.00  0.00  0.00  0.97  0.00
  HS02004770HS02004777    1.00   0.00  0.04  0.00  0.96  0.00  0.00  0.00  0.03  0.00
  HS02004799HS02004480    1.00   0.00  0.01  0.00  0.95  0.00  0.03  0.00  0.00  0.00
  HS02004792HS02004799    1.00   0.00  0.00  0.00  0.99  0.00  0.00  0.00  0.98  0.00
  HS02004788HS02004792    1.00   0.00  0.00  0.00  1.00  0.00  0.00  0.00  0.98  0.00
  HS02004785HS02004788    1.00   0.00  0.00  0.00  1.00  0.00  0.00  0.00  0.00  0.00
  HS02004777HS02004785    1.00   0.00  0.00  0.00  1.00  0.00  0.00  0.00  0.12  0.00
  HS02004480HS02004478    1.00   0.04  0.00  0.00  0.70  0.00  0.00  0.26  0.00  0.00
  HS02004479HS02004480    1.00   0.02  0.00  0.00  0.98  0.00  0.00  0.00  0.12  0.00
  HS02004862HS02004870    1.00   0.00  0.00  0.00  1.00  0.00  0.00  0.00  0.04  0.00
  HS02004848HS02004852    1.00   0.04  0.00  0.00  0.96  0.00  0.00  0.00  0.64  0.00
  HS02004856HS02004862    1.00   0.00  0.05  0.00  0.95  0.00  0.00  0.00  0.83  0.00
  HS02004852HS02004856    1.00   0.04  0.00  0.00  0.96  0.00  0.00  0.00  0.80  0.00
  HS02004802HS02004478    1.00   0.04  0.00  0.00  0.96  0.00  0.00  0.00  0.02  0.00
  HS02004478WS02006287    1.00   0.05  0.00  0.00  0.77  0.19  0.00  0.00  0.65  0.00
  HS02004817HS02004807    1.00   0.00  0.04  0.00  0.96  0.00  0.00  0.00  0.01  0.00
  HS02004807HS02004802    1.00   0.04  0.00  0.00  0.96  0.00  0.00  0.00  0.00  0.00
  YS02001759YS02001757    1.00   0.00  0.00  0.00  1.00  0.00  0.00  0.00  0.16  0.00
  YS02001762YS02001759    1.00   0.00  0.00  0.00  1.00  0.00  0.00  0.00  0.03  0.00
  YS02001765YS02001762    1.00   0.00  0.00  0.00  1.00  0.00  0.00  0.00  0.14  0.00
  YS02001770YS02001767    1.00   0.00  0.00  0.00  1.00  0.00  0.00  0.00  0.00  0.00
  YS02001774YS02001770    1.00   0.00  0.04  0.00  0.96  0.00  0.00  0.00  0.03  0.00
  YS02001779YS02001774    1.00   0.00  0.00  0.00  1.00  0.00  0.00  0.00  0.19  0.00
  YS02001649YS02001757    1.00   0.00  0.00  0.00  1.00  0.00  0.00  0.00  0.16  0.00
  YS02001767YS02001765    1.00   0.00  0.00  0.00  1.00  0.00  0.00  0.00  0.00  0.00
  YS02006561YS02001783    1.00   0.06  0.00  0.00  0.37  0.57  0.00  0.00  0.47  0.00
  YS02001783YS02001784    1.00   0.00  0.06  0.00  0.94  0.00  0.00  0.00  0.00  0.00
  YS02001784YS02001785    1.00   0.00  0.00  0.00  1.00  0.00  0.00  0.00  0.18  0.00
  YS02001788YS02001790    1.00   0.00  0.00  0.00  0.44  0.56  0.00  0.00  0.36  0.00
  YS02001790YS02001791    1.00   0.00  0.00  0.00  0.40  0.60  0.00  0.00  0.44  0.00
  YS02001791YS02001793    1.00   0.00  0.00  0.00  0.43  0.57  0.00  0.00  0.02  0.00
  YS02001910YS02001907    1.00   0.00  0.00  0.00  0.99  0.00  0.00  0.01  0.12  0.00
  YS02001786YS02001788    1.00   0.00  0.00  0.00  0.43  0.57  0.00  0.00  0.00  0.00
  YS02001915YS02001910    1.00   0.00  0.00  0.00  0.99  0.01  0.00  0.00  0.16  0.00
  YS02001918YS02001915    1.00   0.00  0.00  0.00  0.99  0.01  0.00  0.00  0.53  0.00
  YS02001923YS02001920    1.00   0.00  0.00  0.00  1.00  0.00  0.00  0.00  0.82  0.00
  YS02001926YS02001923    1.00   0.00  0.02  0.00  0.16  0.00  0.82  0.00  0.00  0.00
  YS02001929YS02001926    1.00   0.00  0.04  0.00  0.96  0.00  0.00  0.00  0.74  0.00
  YS02001920YS02001918    1.00   0.00  0.00  0.00  1.00  0.00  0.00  0.00  0.00  0.00
  YS02001629YS02163301    1.00   0.05  0.00  0.00  0.95  0.00  0.00  0.00  0.00  0.00
  YS02001619YS02001622    1.00   0.04  0.00  0.00  0.96  0.00  0.00  0.00  0.00  0.00
  YS02001622YS02001625    1.00   0.04  0.00  0.00  0.96  0.00  0.00  0.00  0.05  0.00
  YS02001625YS02001629    1.00   0.04  0.02  0.00  0.93  0.00  0.02  0.00  0.00  0.00
  YS02163301YS02001633    1.00   0.00  0.04  0.00  0.96  0.00  0.00  0.00  0.00  0.00
  YS02163601YS02164001    1.00   0.00  0.03  0.00  0.97  0.00  0.00  0.00  0.00  0.00
  YS02164001YS02001641    1.00   0.00  0.02  0.00  0.97  0.00  0.00  0.00  0.06  0.00
  YS02001641YS02001644    1.00   0.00  0.00  0.00  1.00  0.00  0.00  0.00  0.00  0.00
  YS02001647YS02001649    1.00   0.00  0.05  0.00  0.95  0.00  0.00  0.00  0.01  0.00
  YS02006553YS02006556    1.00   0.01  0.00  0.00  0.99  0.00  0.00  0.00  0.03  0.00
  YS02006556YS02006558    1.00   0.00  0.00  0.00  1.00  0.00  0.00  0.00  0.00  0.00
  YSB6556YSB1171          1.00   0.02  0.02  0.00  0.96  0.00  0.00  0.00  0.00  0.00
  YS02001907YS02006553    1.00   0.00  0.01  0.00  0.99  0.00  0.00  0.00  0.00  0.00
  YS02006558YS02006561    1.00   0.05  0.00  0.00  0.16  0.78  0.00  0.00  0.46  0.00
  YS02001633YS02163601    1.00   0.00  0.00  0.00  1.00  0.00  0.00  0.00  0.15  0.00
  YS02001644YS02001647    1.00   0.00  0.05  0.00  0.95  0.00  0.00  0.00  0.00  0.00
  YS02001745YS02001748    1.00   0.00  0.00  0.00  0.90  0.01  0.00  0.09  0.04  0.00
  YS02001748YS02001751    1.00   0.00  0.00  0.00  0.97  0.03  0.00  0.00  0.15  0.00
  YS02001751YS02001754    1.00   0.00  0.00  0.00  0.94  0.00  0.00  0.06  0.02  0.00
  YS02001754YS02001757    1.00   0.00  0.00  0.00  1.00  0.00  0.00  0.00  0.18  0.00
  YS02001882YS02001884    1.00   0.04  0.00  0.00  0.95  0.00  0.00  0.00  0.00  0.00
  YS02001884YS02001887    1.00   0.02  0.01  0.00  0.97  0.00  0.00  0.00  0.00  0.00
  YS02001890YS02001895    1.00   0.00  0.05  0.00  0.95  0.00  0.00  0.00  0.00  0.00
  YS02001895YS02001898    1.00   0.05  0.00  0.00  0.94  0.00  0.01  0.00  0.00  0.00
  YS02001898YS02001901    1.00   0.05  0.00  0.00  0.95  0.00  0.00  0.00  0.01  0.00
  YS02001901YS02001904    1.00   0.05  0.00  0.00  0.95  0.00  0.00  0.00  0.00  0.00
  YS02001904YS02001907    1.00   0.00  0.05  0.00  0.95  0.00  0.00  0.00  0.00  0.00
  YS02001887YS02001890    1.00   0.00  0.00  0.00  0.99  0.00  0.01  0.00  0.00  0.00
  YS02001652YS02001649    1.00   0.00  0.00  0.00  1.00  0.00  0.00  0.00  0.17  0.00
  YS02001655YS02001652    1.00   0.00  0.00  0.00  0.94  0.00  0.00  0.06  0.02  0.00
  YS02001658YS02001655    1.00   0.00  0.04  0.00  0.93  0.03  0.00  0.00  0.10  0.00
  YS02001661YS02001658    1.00   0.04  0.00  0.00  0.90  0.06  0.00  0.00  0.11  0.00
  YS02001664YS02001661    1.00   0.04  0.00  0.00  0.92  0.05  0.00  0.00  0.20  0.00
  YSB1154YSB6556          1.00   0.04  0.00  0.00  0.96  0.00  0.00  0.00  0.02  0.00
  YSB1174YSB1171          1.00   0.02  0.01  0.00  0.97  0.00  0.00  0.00  0.00  0.00
  YSB1171HS02004479       1.00   0.02  0.00  0.00  0.98  0.00  0.00  0.00  0.10  0.00
  HS02004881HS02006253    1.00   0.02  0.00  0.00  0.51  0.04  0.00  0.43  0.38  0.00
  YS02001793JiankangQianchi    1.00   0.00  0.00  0.00  0.65  0.35  0.00  0.00  0.38  0.00
  YS02001757CaochengTiaoxuchi    1.00   0.00  0.07  0.00  0.93  0.00  0.00  0.00  0.00  0.00
  WSF200WS02003060        1.00   0.00  0.01  0.00  0.99  0.00  0.00  0.00  0.51  0.00
  1                       1.00   0.00  0.00  0.00  0.00  1.00  0.00  0.00  0.51  0.00
  
  
  *************************
  Conduit Surcharge Summary
  *************************
  
  ----------------------------------------------------------------------------
                                                           Hours        Hours 
                         --------- Hours Full --------   Above Full   Capacity
  Conduit                Both Ends  Upstream  Dnstream   Normal Flow   Limited
  ----------------------------------------------------------------------------
  WS02006229WS02006228        2.80      2.96      2.80      4.61         2.80
  WS02006256WS02006235        5.52      5.52      6.84      4.46         0.01
  WS02006253WS02006251        0.76      0.76      0.81      0.01         0.01
  WS02006252WS02006251        0.66      0.66      0.93      0.65         0.01
  WS02006251WS02006249        0.77      0.78      0.82      0.39         0.29
  WS02006249WS02006248        0.78      0.78      0.82      1.63         0.01
  WS02006248WS02006247        0.81      0.81      0.92      0.01         0.01
  WS02006247WS02006245        0.90      0.95      0.91      2.53         0.75
  WS02006245WS02006243        0.92      0.93      1.00      0.16         0.14
  WS02006243WS02006242        1.04      1.04      1.38      0.01         0.01
  WS02006242WS02006240        1.20      1.20      1.56      0.55         0.01
  WS02006240WS02006239        1.25      1.27      1.45      0.38         0.20
  WS02006239WS02006238        1.80      1.84      2.21      0.39         0.26
  WS02006238WS02006235        2.17      2.17      2.52      0.01         0.02
  WS02006235WS02006234        1.48      1.48      2.06      5.33         0.01
  WS02006234WS02006232        1.69      1.69      2.72      0.25         0.26
  WS02006232WS02006231        1.03      1.03      2.72      0.32         0.01
  WS02006231WS02006230        0.86      0.86      1.08      5.63         0.01
  WS02006230WS02006229        3.79      4.20      3.79      6.14         3.79
[...]
  YS02001770YS02001767        5.69      5.69      5.70      0.55         0.56
  YS02001774YS02001770        5.68      5.68      5.74      0.01         0.01
  YS02001779YS02001774        5.56      5.56      5.74      0.01         0.01
  YS02001649YS02001757        5.75      5.75      5.86      0.01         0.01
  YS02001767YS02001765        5.70      5.70      5.72      0.01         0.01
  YS02006561YS02001783        0.91      0.91      1.49      0.01         0.01
  YS02001783YS02001784        1.47      1.49      1.47      1.47         1.29
  YS02001784YS02001785        1.41      1.47      1.41      2.50         1.41
  YS02001788YS02001790        1.25      1.25      2.22      0.01         0.01
  YS02001790YS02001791        2.22      2.22      2.32      1.17         1.15
  YS02001791YS02001793        2.32      2.32      2.67      0.01         0.01
  YS02001910YS02001907        1.29      1.29      1.88      0.01         0.01
  YS02001786YS02001788        1.25      1.41      1.25      2.03         1.25
  YS02001915YS02001910        1.10      1.10      1.29      0.01         0.01
  YS02001918YS02001915        0.89      0.89      1.10      0.01         0.01
  YS02001923YS02001920        0.74      0.74      0.92      0.01         0.01
  YS02001920YS02001918        0.89      0.89      0.92      0.01         0.01
  YS02001629YS02163301        5.67      5.67      5.69      0.01         0.01
  YS02001619YS02001622        5.38      5.38      5.41      0.01         0.01
  YS02001622YS02001625        5.41      5.41      5.64      0.01         0.01
  YS02001625YS02001629        5.39      5.39      5.64      0.01         0.01
  YS02163301YS02001633        5.69      5.69      5.72      0.01         0.01
  YS02163601YS02164001        5.72      5.72      5.75      0.01         0.01
  YS02164001YS02001641        5.72      5.72      5.73      0.01         0.02
  YS02001641YS02001644        5.73      5.73      5.73      1.72         2.00
  YS02001647YS02001649        5.62      5.62      5.75      0.01         0.01
  YS02006553YS02006556        1.51      1.51      1.95      0.01         0.01
  YS02006556YS02006558        1.67      1.67      2.03      0.01         0.01
  YSB6556YSB1171              0.01      0.01      0.07      0.01         0.01
  YS02001907YS02006553        2.54      2.54      2.75      0.01         0.01
  YS02006558YS02006561        1.04      1.47      1.04      2.35         1.04
  YS02001633YS02163601        5.71      5.71      5.75      0.01         0.01
  YS02001644YS02001647        5.62      5.62      5.73      0.01         0.01
  YS02001745YS02001748        0.01      0.01      5.22      0.01         0.01
  YS02001748YS02001751        5.27      5.27      5.38      0.01         0.01
  YS02001751YS02001754        5.38      5.38      5.58      0.01         0.01
  YS02001754YS02001757        5.62      5.62      5.86      0.01         0.01
  YS02001882YS02001884        1.12      1.12      1.15      0.01         0.01
  YS02001884YS02001887        1.19      1.19      1.22      0.01         0.01
  YS02001890YS02001895        1.08      1.08      1.30      0.01         0.01
  YS02001895YS02001898        1.07      1.07      1.08      0.01         0.01
  YS02001898YS02001901        1.09      1.09      1.19      0.01         0.01
  YS02001901YS02001904        1.17      1.17      1.19      0.01         0.01
  YS02001904YS02001907        1.17      1.17      1.97      0.01         0.01
  YS02001887YS02001890        1.24      1.24      1.27      0.16         0.01
  YS02001652YS02001649        5.63      5.63      5.75      0.01         0.01
  YS02001655YS02001652        5.40      5.40      5.61      0.01         0.01
  YS02001658YS02001655        5.25      5.25      5.40      0.01         0.01
  YS02001661YS02001658        0.08      0.08      5.25      0.01         0.01
  YS02001664YS02001661        0.01      0.01      1.42      0.01         0.01
  HS02004881HS02006253        0.01      0.01      0.41      0.01         0.01
  YS02001793JiankangQianchi        2.58      2.58      4.02      0.01         0.01
  YS02001757CaochengTiaoxuchi        5.11      5.11      5.86      0.01         0.01
  
  
  ***************
  Pumping Summary
  ***************
  
  ---------------------------------------------------------------------------------------------------------
                                                  Min       Avg       Max     Total     Power    % Time Off
                        Percent   Number of      Flow      Flow      Flow    Volume     Usage    Pump Curve
  Pump                 Utilized   Start-Ups       LPS       LPS       LPS  10^6 ltr     Kw-hr    Low   High
  ---------------------------------------------------------------------------------------------------------
  CC-Pump-1               53.17           5      0.00    132.76    200.00     1.860      1.44    0.0    0.0
  CC-Pump-2               14.89           2      0.00    117.71    200.00     0.540      0.71    0.0    0.0
  JK-Pump-1               61.70           5      0.00    224.74    300.00     3.884     55.53    0.0    0.0
  JK-Pump-2               53.19           4      0.00    409.71    683.00     6.411     84.90    0.0   95.6
  XR-Pump-1               97.87           2      0.00     94.49     95.00     2.565     25.20    0.0    0.0
  XR-Pump-2               95.74           3      0.00     93.29     95.00     2.451     22.75    0.0    0.0
  XR-Pump-3               95.74           3      0.00     93.29     95.00     2.451     22.75    0.0    0.0
  XR-Pump-4               95.74           3      0.00     93.29     95.00     2.451     22.75    0.0    0.0
  
  
  ***************************
  Link Pollutant Load Summary
  ***************************
  
  ------------------------------------------------------------------------------------------
                                 COD            SS            TN            TP         NH4-N
  Link                            kg            kg            kg            kg            kg
  ------------------------------------------------------------------------------------------
  WS02003066WSF200           769.457      1441.655        20.550         1.825        10.875
  WS02006287WS02006284       319.449       608.049        10.314         1.015         5.679
  WS02006284WS02006280       319.935       608.846        10.360         1.021         5.707
  WS02006280WS02006229       319.885       608.749        10.358         1.020         5.706
  WS02006229WS02006228       771.440      1445.165        20.125         1.758        10.585
  WS02006256WS02006235       222.905       412.308         4.909         0.382         2.481
  WS02006253WS02006251        61.194       120.408         1.337         0.100         0.662
  WS02006252WS02006251       204.475       372.425         4.288         0.311         2.111
  WS02006251WS02006249       256.884       476.819         5.456         0.400         2.693
  WS02006249WS02006248       243.697       451.294         5.187         0.381         2.562
  WS02006248WS02006247       242.820       449.663         5.168         0.379         2.552
  WS02006247WS02006245       241.902       448.011         5.148         0.378         2.542
  WS02006245WS02006243       240.670       445.864         5.117         0.375         2.526
  WS02006243WS02006242       239.521       443.805         5.094         0.374         2.515
  WS02006242WS02006240       238.417       441.786         5.077         0.373         2.508
  WS02006240WS02006239       238.352       441.606         5.090         0.375         2.517
  WS02006239WS02006238       239.849       444.052         5.161         0.383         2.558
  WS02006238WS02006235       240.502       445.005         5.195         0.386         2.578
  WS02006235WS02006234       457.131       846.361         9.897         0.748         4.945
  WS02006234WS02006232       456.146       844.564         9.881         0.747         4.939
  WS02006232WS02006231       455.003       842.504         9.855         0.745         4.925
  WS02006231WS02006230       453.794       840.319         9.831         0.744         4.913
  WS02006230WS02006229       452.675       838.361         9.801         0.741         4.898
  WS02006228WS02006109       769.976      1442.537        20.090         1.756        10.568
  WS02006116WS02004401       780.397      1461.343        20.833         1.848        11.023
  WS02006115WS02006116       781.998      1464.172        20.881         1.853        11.049
  WS02006113WS02006111       774.387      1448.807        20.789         1.847        11.015
  WS02006112WS02006115       783.619      1467.000        20.937         1.858        11.081
  WS02006111WS02006112       773.691      1447.630        20.768         1.845        11.003
  WS02006110WS02006113       775.368      1450.573        20.821         1.850        11.032
  WS02006109WS02006110       777.022      1453.519        20.877         1.856        11.064
  WS02004411WS02004412       772.585      1447.168        20.664         1.836        10.940
  WS02004401WS02004402       778.991      1458.879        20.784         1.844        10.996
  WS02004413WS02003067       770.005      1442.709        20.561         1.825        10.881
  WS02004412WS02004413       771.528      1445.304        20.629         1.833        10.920
  WS02004410WS02004411       773.446      1448.718        20.691         1.839        10.954
  WS02004409WS02004410       774.343      1450.306        20.722         1.842        10.972
  WS02004407WS02004409       775.029      1451.554        20.741         1.843        10.982
  WS02004406WS02004407       775.219      1451.955        20.740         1.843        10.981
  WS02004405WS02004406       776.566      1454.329        20.796         1.849        11.013
  WS02004404WS02004405       777.241      1455.605        20.794         1.848        11.009
  WS02004403WS02004404       776.776      1454.976        20.708         1.836        10.954
  WS02004402WS02004403       777.786      1456.743        20.746         1.840        10.975
  WS02004139WS02001211      1382.409      2295.285       112.230        13.700        69.179
  WS02004138WS02004139      1388.717      2305.820       112.717        13.759        69.478
  WS02003067WS02003066       769.636      1441.976        20.556         1.825        10.879
  WS02001213WS02003059      1415.494      2347.258       115.662        14.133        71.336
  WS02001212WS02001213      1424.603      2362.352       116.400        14.223        71.791
  WS02001211WS02001212      1426.778      2365.905       116.588        14.246        71.908
  WS02003072WS02003073      2285.404      3948.455       146.212        17.213        88.477
  WS02003069WS02003072      2290.357      3956.522       146.620        17.263        88.728
  WS02003060WS02003069      2292.932      3960.978       146.763        17.279        88.814
  WS02003059WS02003060      1412.463      2342.119       115.449        14.107        71.207
  HS02004901HS02004770        13.092        25.470         0.248         0.019         0.116
  HS02004876HS02004881        45.511        90.338         0.999         0.073         0.491
  HS02004870HS02004876        34.379        68.098         0.798         0.060         0.395
  HS02004842HS02004848         6.456        12.343         0.134         0.009         0.062
  HS02004837HS02004842        11.056        19.635         0.603         0.068         0.356
  HS02004830HS02004837        70.296       122.722         4.643         0.552         2.827
  HS02004824HS02004830        71.067       123.976         4.715         0.561         2.871
  HS02004817HS02004824        97.159       176.398         5.254         0.596         3.135
  HS02004770HS02004777        49.657        97.702         1.021         0.069         0.472
  HS02004799HS02004480       162.304       310.795         4.262         0.379         2.209
  HS02004792HS02004799       147.257       280.089         4.028         0.367         2.105
  HS02004788HS02004792        82.808       157.669         2.665         0.255         1.440
  HS02004785HS02004788        51.115       100.036         1.172         0.089         0.567
  HS02004777HS02004785        50.440        98.930         1.112         0.081         0.530
  HS02004480HS02004478       204.795       395.130         4.971         0.429         2.543
  HS02004479HS02004480        46.122        90.102         1.037         0.091         0.538
  HS02004862HS02004870        25.797        50.335         0.628         0.050         0.314
  HS02004848HS02004852        10.251        19.883         0.210         0.014         0.097
  HS02004856HS02004862        17.522        34.745         0.350         0.023         0.164
  HS02004852HS02004856        10.254        19.887         0.210         0.014         0.097
  HS02004802HS02004478       115.333       214.032         5.398         0.592         3.169
  HS02004478WS02006287       319.662       608.419        10.331         1.017         5.689
  HS02004817HS02004807        95.853       174.302         5.130         0.581         3.057
  HS02004807HS02004802       115.590       214.436         5.430         0.596         3.189
  YS02001759YS02001757       306.666       562.281         6.135         0.427         3.000
  YS02001762YS02001759       191.054       353.056         3.948         0.279         1.947
  YS02001765YS02001762       192.447       356.491         3.995         0.283         1.973
  YS02001770YS02001767       195.272       364.098         3.891         0.263         1.893
  YS02001774YS02001770       308.958       597.982         5.948         0.397         2.876
  YS02001779YS02001774       308.250       596.621         6.032         0.410         2.935
  YS02001649YS02001757       388.094       706.355         7.796         0.533         3.755
  YS02001767YS02001765       194.239       360.637         4.043         0.287         1.998
  YS02006561YS02001783      1026.012      1902.113        21.501         1.605        10.699
  YS02001783YS02001784      1025.898      1901.938        21.497         1.604        10.697
  YS02001784YS02001785      1033.210      1913.645        22.210         1.694        11.143
  YS02001788YS02001790      1033.800      1914.603        22.282         1.703        11.189
  YS02001790YS02001791      1034.824      1916.247        22.382         1.716        11.251
  YS02001791YS02001793      1034.797      1916.212        22.379         1.715        11.249
  YS02001910YS02001907       391.247       721.530         9.392         0.719         4.813
  YS02001786YS02001788      1033.409      1913.970        22.238         1.697        11.161
  YS02001915YS02001910       391.295       721.603         9.344         0.712         4.780
  YS02001918YS02001915       186.126       328.187         5.129         0.467         2.763
  YS02001923YS02001920       165.937       295.695         3.178         0.223         1.543
  YS02001926YS02001923       164.638       293.508         3.103         0.214         1.498
  YS02001929YS02001926       164.208       292.784         3.065         0.210         1.475
  YS02001920YS02001918       185.680       327.253         5.091         0.463         2.740
  YS02001629YS02163301        96.112       169.945         2.029         0.131         0.946
  YS02001619YS02001622       175.883       321.149         3.602         0.236         1.684
  YS02001622YS02001625       174.691       319.254         3.573         0.234         1.671
  YS02001625YS02001629        97.188       171.707         2.053         0.132         0.957
  YS02163301YS02001633        96.459       170.787         2.031         0.132         0.948
  YS02163601YS02164001       405.759       733.214         7.899         0.562         3.784
  YS02164001YS02001641       405.231       732.315         7.879         0.560         3.773
  YS02001641YS02001644       405.297       732.349         7.875         0.560         3.770
  YS02001647YS02001649       495.541       912.668         9.854         0.680         4.714
  YS02006553YS02006556       692.074      1272.517        14.875         1.139         7.486
  YS02006556YS02006558       692.020      1272.402        14.846         1.135         7.466
  YSB6556YSB1171              26.518        51.961         0.537         0.045         0.271
  YS02001907YS02006553       692.134      1272.652        14.882         1.140         7.490
  YS02006558YS02006561      1026.011      1902.108        21.501         1.605        10.699
  YS02001633YS02163601       406.482       734.339         7.880         0.558         3.768
  YS02001644YS02001647       501.726       923.896         9.951         0.687         4.758
  YS02001745YS02001748       249.070       465.930         5.403         0.369         2.673
  YS02001748YS02001751       247.540       462.950         5.470         0.381         2.724
  YS02001751YS02001754       246.684       461.512         5.472         0.383         2.729
  YS02001754YS02001757       247.433       462.631         5.636         0.405         2.835
  YS02001882YS02001884         2.807         4.834         0.057         0.004         0.029
  YS02001884YS02001887         6.740        11.911         0.133         0.010         0.066
  YS02001890YS02001895       451.053       846.615         8.303         0.624         4.050
  YS02001895YS02001898       450.914       846.445         8.297         0.624         4.047
  YS02001898YS02001901       450.722       846.121         8.293         0.624         4.045
  YS02001901YS02001904       450.602       845.969         8.300         0.625         4.050
  YS02001904YS02001907       450.821       846.306         8.353         0.632         4.084
  YS02001887YS02001890       468.321       880.861         8.646         0.653         4.223
  YS02001652YS02001649       205.475       381.684         4.137         0.298         1.940
  YS02001655YS02001652       205.918       382.416         4.149         0.299         1.946
  YS02001658YS02001655       205.275       381.406         4.058         0.287         1.888
  YS02001661YS02001658       207.839       386.001         4.110         0.290         1.912
  YS02001664YS02001661       220.964       407.011         4.416         0.311         2.051
  YSB1154YSB6556              26.082        51.266         0.486         0.038         0.239
  YSB1174YSB1171              18.020        35.558         0.361         0.029         0.181
  YSB1171HS02004479           46.087        90.047         1.040         0.092         0.540
  HS02004881HS02006253        51.538       102.683         1.109         0.080         0.544
  YS02001793JiankangQianchi      1035.462      1917.335        22.409         1.718        11.267
  YS02001757CaochengTiaoxuchi       510.109       923.317        10.778         0.777         5.306
  WSF200WS02003060           769.372      1441.421        20.558         1.826        10.881
  1                         2291.113      3956.513       147.011        17.317        88.986
  CC-Pump-1                  160.079       291.941         3.350         0.243         1.649
  CC-Pump-2                   44.164        80.024         0.932         0.067         0.459
  JK-Pump-1                  276.146       515.947         5.840         0.443         2.920
  JK-Pump-2                  569.948      1075.024        11.779         0.885         5.860
  XR-Pump-1                  364.838       604.756        29.851         3.648        18.413
  XR-Pump-2                  342.525       569.056        27.723         3.383        17.084
  XR-Pump-3                  342.525       569.056        27.723         3.383        17.084
  XR-Pump-4                  342.525       569.056        27.723         3.383        17.084
  

  Analysis begun on:  Thu Jul 15 23:13:39 2021
  Analysis ended on:  Thu Jul 15 23:13:42 2021
  Total elapsed time: 00:00:03