
  EPA STORM WATER MANAGEMENT MODEL - VERSION 5.1 (Build 5.3.0.dev0)
  --------------------------------------------------------------

  WARNING 04: minimum elevation drop used for Conduit WS02004404WS02004405
  WARNING 03: negative offset ignored for Link YS02001904YS02001907
  
  *********************************************************
  NOTE: The summary statistics displayed in this report are
  based on results found at every computational time step,  
  not just on results from each reporting time step.
  *********************************************************
  
  ****************
  Analysis Options
  ****************
  Flow Units ............... LPS
  Process Models:
    Rainfall/Runoff ........ YES
    RDII ................... NO
    Snowmelt ............... NO
    Groundwater ............ NO
    Flow Routing ........... YES
    Ponding Allowed ........ NO
    Water Quality .......... YES
  Infiltration Method ...... HORTON
  Flow Routing Method ...... DYNWAVE
  Surcharge Method ......... EXTRAN
  Starting Date ............ 08/28/2015 08:00:00
  Ending Date .............. 08/28/2015 15:50:00
  Antecedent Dry Days ...... 8.0
  Report Time Step ......... 00:01:00
  Wet Time Step ............ 00:01:00
  Dry Time Step ............ 00:01:00
  Routing Time Step ........ 5.00 sec
  Variable Time Step ....... YES
  Maximum Trials ........... 8
  Number of Threads ........ 4
  Head Tolerance ........... 0.001500 m
  
  
  **************************        Volume         Depth
  Runoff Quantity Continuity     hectare-m            mm
  **************************     ---------       -------
  Total Precipitation ......         6.144        13.452
  Evaporation Loss .........         0.000         0.000
  Infiltration Loss ........         1.064         2.328
  Surface Runoff ...........         4.147         9.079
  Final Storage ............         0.935         2.047
  Continuity Error (%) .....        -0.020
  
  
  **************************           COD            SS            TN            TP         NH4-N
  Runoff Quality Continuity             kg            kg            kg            kg            kg
  **************************    ----------    ----------    ----------    ----------    ----------
  Initial Buildup ..........     41378.656     70582.865      1804.177       168.684      1032.807
  Surface Buildup ..........        21.799        40.924         2.400         0.218         1.395
  Wet Deposition ...........         0.000         0.000         0.000         0.000         0.000
  Sweeping Removal .........         0.000         0.000         0.000         0.000         0.000
  Infiltration Loss ........        97.311       184.943         1.849         0.130         0.881
  BMP Removal ..............         0.000         0.000         0.000         0.000         0.000
  Surface Runoff ...........      3769.819      7064.251        72.781         4.964        34.599
  Remaining Buildup ........     37531.916     63371.884      1731.919       163.806       998.709
  Continuity Error (%) .....         0.003         0.004         0.002         0.001         0.001
  
  
  **************************        Volume        Volume
  Flow Routing Continuity        hectare-m      10^6 ltr
  **************************     ---------     ---------
  Dry Weather Inflow .......         0.616         6.165
  Wet Weather Inflow .......         4.145        41.451
  Groundwater Inflow .......         0.000         0.000
  RDII Inflow ..............         0.000         0.000
  External Inflow ..........         0.102         1.024
  External Outflow .........         1.899        18.988
  Flooding Loss ............         2.513        25.127
  Evaporation Loss .........         0.000         0.000
  Exfiltration Loss ........         0.000         0.000
  Initial Stored Volume ....         0.076         0.761
  Final Stored Volume ......         0.644         6.443
  Continuity Error (%) .....        -2.345
  
  
  **************************           COD            SS            TN            TP         NH4-N
  Quality Routing Continuity            kg            kg            kg            kg            kg
  **************************    ----------    ----------    ----------    ----------    ----------
  Dry Weather Inflow .......      1541.201      2465.922       147.955        18.494        92.472
  Wet Weather Inflow .......      3768.957      7062.779        72.762         4.963        34.591
  Groundwater Inflow .......         0.000         0.000         0.000         0.000         0.000
  RDII Inflow ..............         0.000         0.000         0.000         0.000         0.000
  External Inflow ..........       183.418       293.469        17.608         2.201        11.005
  External Outflow .........      2300.564      3974.197       147.531        17.376        89.296
  Flooding Loss ............      2491.993      4638.275        62.865         5.414        32.872
  Exfiltration Loss ........         0.000         0.000         0.000         0.000         0.000
  Mass Reacted .............         0.000         0.000         0.000         0.000         0.000
  Initial Stored Mass ......         0.000         0.000         0.000         0.000         0.000
  Final Stored Mass ........       575.277       995.832        24.837         2.627        14.327
  Continuity Error (%) .....         2.289         2.177         1.298         0.942         1.140
  
  
  *************************
  Highest Continuity Errors
  *************************
  Node HS02004842 (13.41%)
  Node JK-storage (-10.95%)
  Node YS02001884 (10.76%)
  Node HS02004817 (2.53%)
  Node YSB1171 (2.46%)
  
  
  ***************************
  Time-Step Critical Elements
  ***************************
  Link WS02006252WS02006251 (61.90%)
  Link WS02006280WS02006229 (11.76%)
  Link WS02006238WS02006235 (6.95%)
  Link YS02001793JiankangQianchi (5.33%)
  Link YS02006556YS02006558 (1.92%)
  
  
  ********************************
  Highest Flow Instability Indexes
  ********************************
  Link WS02006113WS02006111 (44)
  Link YS02163601YS02164001 (30)
  Link YS02001629YS02163301 (30)
  Link YS02163301YS02001633 (30)
  Link YS02164001YS02001641 (28)
  
  
  *************************
  Routing Time Step Summary
  *************************
  Minimum Time Step           :     0.50 sec
  Average Time Step           :     1.30 sec
  Maximum Time Step           :     5.00 sec
  Percent in Steady State     :    -0.00
  Average Iterations per Step :     3.80
  Percent Not Converging      :    14.26
  
  
  ***************************
  Subcatchment Runoff Summary
  ***************************
  
  ------------------------------------------------------------------------------------------------------------------------------
                            Total      Total      Total      Total     Imperv       Perv      Total       Total     Peak  Runoff
                           Precip      Runon       Evap      Infil     Runoff     Runoff     Runoff      Runoff   Runoff   Coeff
  Subcatchment                 mm         mm         mm         mm         mm         mm         mm    10^6 ltr      LPS
  ------------------------------------------------------------------------------------------------------------------------------
  sub0                      13.45       0.00       0.00       0.63      12.47       0.31      12.77        0.01     3.75   0.950
  sub1                      13.45       0.00       0.00       1.12      11.88       0.36      12.24        0.08    25.66   0.910
  sub2                      13.45       0.00       0.00       4.44       8.39       0.53       8.92        0.08    25.29   0.663
  sub3                      13.45       0.00       0.00       4.56       8.35       0.42       8.77        0.20    55.75   0.652
  sub4                      13.45       0.00       0.00       1.22      11.71       0.26      11.97        0.25    65.52   0.890
  sub5                      13.45       0.00       0.00       0.68      12.41       0.26      12.67        0.14    44.76   0.942
  sub7                      13.45       0.00       0.00       0.86      12.18       0.35      12.53        0.04    14.26   0.931
  sub8                      13.45       0.00       0.00       0.87      12.17       0.34      12.50        0.08    26.26   0.930
  sub9                      13.45       0.00       0.00       0.88      12.17       0.33      12.50        0.06    19.64   0.929
  sub10                     13.45       0.00       0.00       0.78      12.29       0.29      12.58        0.14    44.00   0.935
  sub11                     13.45       0.00       0.00       0.77      12.30       0.31      12.61        0.15    48.45   0.938
  sub12                     13.45       0.00       0.00       1.25      11.66       0.50      12.16        0.11    38.10   0.904
  sub14                     13.45       0.00       0.00       0.88      12.16       0.33      12.49        0.12    38.67   0.929
  sub15                     13.45       0.00       0.00       3.37       9.35       0.66      10.01        0.17    57.01   0.744
  sub16                     13.45       0.00       0.00       3.56       8.97       0.88       9.85        0.10    37.63   0.732
  sub17                     13.45       0.00       0.00       3.47       9.10       0.84       9.94        0.09    30.67   0.739
  sub22                     13.45       0.00       0.00       4.98       7.63       0.81       8.43        0.53   184.54   0.627
  sub23                     13.45       0.00       0.00       4.17       8.43       0.81       9.24        0.44   154.22   0.687
  sub60                     13.45       0.00       0.00       1.53       9.85       0.09       9.93        3.01   438.14   0.738
  sub61                     13.45       0.00       0.00       2.16       9.95       0.12      10.07        3.11   536.45   0.749
  sub62                     13.45       0.00       0.00       0.98      10.84       0.10      10.94        3.36   552.35   0.813
  sub63                     13.45       0.00       0.00       3.77       8.69       0.14       8.83        2.67   492.63   0.656
  sub64                     13.45       0.00       0.00       1.93       9.45       0.09       9.54        2.90   416.72   0.709
  sub65                     13.45       0.00       0.00       1.67       9.61       0.08       9.70        2.98   423.09   0.721
  sub66                     13.45       0.00       0.00       3.81       8.10       0.09       8.18        2.51   380.66   0.608
  sub67                     13.45       0.00       0.00       0.95      11.38       0.13      11.51        3.55   679.52   0.856
  sub68                     13.45       0.00       0.00       1.75      10.45       0.13      10.59        3.26   586.26   0.787
  sub69                     13.45       0.00       0.00       1.83      10.79       0.19      10.98        2.57   544.72   0.816
  sub70                     13.45      11.20       0.00       7.51      14.65       0.88      15.52        3.55   494.81   0.630
  sub71                     13.45       0.00       0.00       0.99      10.58       0.09      10.67        2.52   389.24   0.793
  sub72                     13.45       0.00       0.00       0.89       8.56       0.05       8.61        1.75   189.18   0.640
  1                         13.45      15.11       0.00       1.37      16.56       4.63      21.19        4.98   484.42   0.742
  2                         13.45       0.00       0.00       3.02       3.21       1.96       5.17        2.07   340.45   0.384
  
  
  ****************************
  Subcatchment Washoff Summary
  ****************************
  
  ------------------------------------------------------------------------------------------
                                 COD            SS            TN            TP         NH4-N
  Subcatchment                    kg            kg            kg            kg            kg
  ------------------------------------------------------------------------------------------
  sub0                         2.670         5.197         0.046         0.004         0.022
  sub1                        11.241        22.423         0.210         0.015         0.101
  sub2                         6.894        13.384         0.145         0.010         0.067
  sub3                        16.924        32.573         0.350         0.024         0.161
  sub4                        25.772        51.904         0.510         0.031         0.245
  sub5                        25.778        50.682         0.460         0.035         0.223
  sub7                         5.751        11.638         0.108         0.007         0.052
  sub8                         8.581        17.755         0.171         0.010         0.082
  sub9                         7.353        15.005         0.142         0.009         0.068
  sub10                       21.202        42.223         0.389         0.028         0.188
  sub11                       20.657        41.614         0.386         0.026         0.187
  sub12                       17.724        35.094         0.321         0.024         0.155
  sub14                       15.732        31.800         0.298         0.020         0.144
  sub15                       20.231        39.321         0.389         0.028         0.182
  sub16                       13.129        25.518         0.249         0.019         0.117
  sub17                       12.049        23.208         0.222         0.017         0.105
  sub22                       62.582       119.432         1.186         0.090         0.554
  sub23                       36.683        72.439         0.776         0.051         0.357
  sub60                      243.520       456.962         4.842         0.298         2.321
  sub61                      302.151       564.434         5.627         0.386         2.710
  sub62                      313.722       596.076         6.119         0.388         2.938
  sub63                      223.275       410.850         4.468         0.314         2.075
  sub64                      305.877       553.773         5.626         0.410         2.687
  sub65                      313.037       569.066         5.795         0.415         2.772
  sub66                      176.068       321.340         3.608         0.236         1.687
  sub67                      466.222       877.505         8.365         0.616         4.045
  sub68                      332.037       626.413         6.347         0.429         3.034
  sub69                      298.258       568.561         5.590         0.393         2.674
  sub70                      502.897       962.303        10.037         0.699         4.710
  sub71                      206.745       396.330         4.242         0.246         2.030
  sub72                      164.385       293.107         3.069         0.210         1.476
  1                          349.075       671.606         7.102         0.495         3.297
  2                           42.749        75.577         1.214         0.073         0.518
  ------------------------------------------------------------------------------------------
  System                    4570.974      8595.115        88.408         6.057        41.983
  
  
  ******************
  Node Depth Summary
  ******************
  
  ---------------------------------------------------------------------------------
                                 Average  Maximum  Maximum  Time of Max    Reported
                                   Depth    Depth      HGL   Occurrence   Max Depth
  Node                 Type       Meters   Meters   Meters  days hr:min      Meters
  ---------------------------------------------------------------------------------
  WS02001211           JUNCTION     0.77     0.85     5.69     0  03:07        0.85
  WS02001212           JUNCTION     0.48     0.58     5.64     0  03:06        0.58
  WS02001213           JUNCTION     0.72     0.85     5.62     0  03:06        0.85
  WS02003069           JUNCTION     0.51     0.72     5.30     0  03:05        0.72
  WS02003072           JUNCTION     0.57     0.76     5.13     0  03:06        0.76
  WS02003073           JUNCTION     0.35     0.48     4.54     0  03:06        0.48
  WS02003060           JUNCTION     0.45     0.63     5.57     0  03:05        0.63
  WS02003066           JUNCTION     0.24     0.39     5.94     0  03:04        0.39
  WS02003059           JUNCTION     0.76     0.91     5.60     0  03:05        0.91
  WS02003067           JUNCTION     0.58     0.82     6.14     0  03:03        0.82
  WS02004401           JUNCTION     0.71     1.24     7.24     0  03:01        1.23
  WS02004402           JUNCTION     0.74     1.22     7.18     0  03:02        1.22
  WS02004403           JUNCTION     0.76     1.20     7.13     0  03:02        1.19
  WS02004404           JUNCTION     0.83     1.25     7.10     0  03:02        1.24
  WS02004406           JUNCTION     0.83     1.16     6.99     0  03:02        1.16
  WS02004409           JUNCTION     0.52     0.96     6.73     0  03:03        0.96
  WS02004410           JUNCTION     0.53     0.95     6.67     0  03:03        0.95
  WS02004411           JUNCTION     0.55     0.93     6.61     0  03:03        0.93
  WS02004412           JUNCTION     0.56     0.90     6.54     0  03:03        0.90
  WS02004413           JUNCTION     0.72     1.02     6.49     0  03:03        1.02
  WS02004405           JUNCTION     0.82     1.22     7.07     0  03:02        1.21
  WS02006109           JUNCTION     0.80     1.66     8.28     0  03:02        1.65
  WS02006110           JUNCTION     0.78     1.45     8.04     0  03:02        1.44
  WS02006111           JUNCTION     0.24     0.88     7.59     0  03:02        0.88
  WS02006112           JUNCTION     0.88     1.56     7.44     0  03:02        1.55
  WS02006113           JUNCTION     0.36     0.92     7.82     0  03:02        0.92
  WS02006115           JUNCTION     0.60     1.22     7.36     0  03:02        1.21
  WS02006116           JUNCTION     0.68     1.26     7.30     0  03:02        1.25
  WS02006230           JUNCTION     0.80     1.88     8.62     0  03:02        1.87
  WS02006231           JUNCTION     0.54     1.52     8.65     0  03:02        1.51
  WS02006232           JUNCTION     0.68     1.62     8.66     0  03:02        1.62
  WS02006234           JUNCTION     0.61     1.53     8.68     0  03:02        1.51
  WS02006235           JUNCTION     0.65     1.54     8.71     0  03:02        1.53
  WS02006238           JUNCTION     0.67     1.56     8.70     0  03:02        1.54
  WS02006240           JUNCTION     0.57     1.40     8.70     0  03:02        1.40
  WS02006242           JUNCTION     0.62     1.43     8.70     0  03:02        1.42
  WS02006243           JUNCTION     0.50     1.28     8.70     0  03:01        1.27
  WS02006245           JUNCTION     0.48     1.23     8.72     0  05:02        1.21
  WS02006247           JUNCTION     0.49     1.23     8.73     0  05:02        1.19
  WS02006248           JUNCTION     0.43     1.10     8.69     0  02:58        1.10
  WS02006249           JUNCTION     0.45     1.09     8.69     0  02:56        1.09
  WS02006239           JUNCTION     0.63     1.49     8.70     0  03:02        1.48
  WS02006251           JUNCTION     0.42     1.27     8.94     0  02:56        1.12
  WS02006252           JUNCTION     0.27     0.72     8.96     0  05:22        0.68
  WS02006253           JUNCTION     0.45     1.33     8.97     0  02:56        1.15
  WS02006256           JUNCTION     1.68     2.35     9.28     0  00:12        2.35
  WS02004138           JUNCTION     0.19     0.20     7.45     0  00:00        0.19
  WS02004139           JUNCTION     0.72     0.79     5.70     0  03:07        0.79
  WS02004407           JUNCTION     0.23     0.40     6.71     0  03:03        0.40
  WS02006228           JUNCTION     0.81     1.83     8.48     0  03:02        1.82
  WS02006229           JUNCTION     0.79     1.90     8.60     0  03:02        1.90
  WS02006280           JUNCTION     0.07     0.30     8.57     0  03:05        0.30
  WS02006284           JUNCTION     0.37     0.65     9.04     0  03:02        0.64
  WS02006287           JUNCTION     0.10     0.39     9.34     0  03:02        0.39
  WSF200               JUNCTION     0.23     0.44     5.67     0  03:04        0.44
  HS02004901           JUNCTION     0.13     0.38    10.20     0  03:01        0.37
  HS02004881           JUNCTION     0.01     0.05     9.08     0  03:01        0.05
  HS02004876           JUNCTION     0.05     0.16     9.19     0  03:01        0.16
  HS02004870           JUNCTION     0.02     0.09     9.38     0  03:01        0.09
  HS02004862           JUNCTION     0.02     0.11     9.49     0  03:01        0.11
  HS02004856           JUNCTION     0.08     0.15     9.58     0  03:01        0.15
  HS02004852           JUNCTION     0.01     0.07     9.59     0  03:02        0.07
  HS02004848           JUNCTION     0.01     0.07     9.67     0  03:01        0.07
  HS02004842           JUNCTION     0.34     0.40     9.67     0  03:01        0.40
  HS02004837           JUNCTION     0.03     0.09     9.67     0  03:01        0.09
  HS02004830           JUNCTION     0.04     0.10     9.57     0  03:01        0.10
  HS02004824           JUNCTION     0.03     0.13     9.53     0  03:02        0.13
  HS02004817           JUNCTION     0.45     0.69     9.54     0  03:02        0.69
  HS02004807           JUNCTION     0.13     0.36     9.53     0  03:02        0.36
  HS02004802           JUNCTION     0.17     0.39     9.52     0  03:02        0.39
  HS02004799           JUNCTION     0.13     0.46     9.68     0  03:01        0.46
  HS02004792           JUNCTION     0.04     0.22     9.74     0  03:01        0.21
  HS02004788           JUNCTION     0.03     0.16    10.05     0  03:02        0.16
  HS02004785           JUNCTION     0.05     0.25    10.15     0  03:02        0.25
  HS02004777           JUNCTION     0.15     0.39    10.19     0  03:01        0.39
  HS02004770           JUNCTION     0.12     0.37    10.20     0  03:01        0.36
  HS02004480           JUNCTION     0.09     0.38     9.62     0  03:01        0.38
  HS02004479           JUNCTION     0.12     0.42     9.62     0  03:01        0.42
  HS02004478           JUNCTION     0.07     0.28     9.50     0  03:01        0.28
  YS02001745           JUNCTION     0.73     0.95     8.47     0  03:00        0.95
  YS02001748           JUNCTION     1.13     1.53     8.61     0  02:34        1.38
  YS02001751           JUNCTION     1.31     1.59     8.46     0  03:18        1.58
  YS02001754           JUNCTION     1.56     1.85     8.46     0  03:19        1.84
  YS02001762           JUNCTION     1.76     2.05     8.45     0  03:20        2.04
  YS02001765           JUNCTION     1.71     2.00     8.45     0  03:18        1.99
  YS02001767           JUNCTION     1.67     1.95     8.44     0  03:00        1.94
  YS02001770           JUNCTION     1.67     1.94     8.43     0  02:59        1.93
  YS02001774           JUNCTION     1.74     1.99     8.41     0  02:59        1.98
  YS02001779           JUNCTION     1.48     1.68     8.37     0  02:41        1.68
  YS02001882           JUNCTION     0.60     1.64     8.35     0  02:59        1.63
  YS02001884           JUNCTION     0.69     1.73     8.35     0  03:00        1.73
  YS02001759           JUNCTION     1.79     2.09     8.45     0  03:18        2.08
  YS02001887           JUNCTION     0.77     1.82     8.36     0  02:58        1.81
  YS02001890           JUNCTION     0.80     1.81     8.32     0  02:45        1.81
  YS02001898           JUNCTION     0.57     1.56     8.30     0  02:52        1.56
  YS02001901           JUNCTION     0.68     1.68     8.29     0  02:55        1.67
  YS02001904           JUNCTION     0.66     1.64     8.27     0  02:49        1.63
  YS02001907           JUNCTION     0.99     1.96     8.25     0  02:45        1.96
  YS02001910           JUNCTION     0.78     1.78     8.29     0  02:46        1.77
  YS02001915           JUNCTION     0.58     1.60     8.32     0  02:46        1.58
  YS02001918           JUNCTION     0.32     1.29     8.35     0  02:46        1.24
  YS02001619           JUNCTION     1.27     1.61     8.54     0  02:30        1.48
  YS02001629           JUNCTION     1.62     1.85     8.40     0  02:31        1.84
  YS02001641           JUNCTION     1.72     1.94     8.37     0  02:39        1.93
  YS02001644           JUNCTION     1.72     1.92     8.35     0  02:39        1.92
  YS02001652           JUNCTION     1.57     2.06     8.65     0  02:25        1.92
  YS02001655           JUNCTION     1.34     2.20     9.05     0  02:25        1.73
  YS02001920           JUNCTION     0.42     1.37     8.38     0  02:46        1.31
  YS02001923           JUNCTION     0.25     1.13     8.39     0  02:46        1.06
  YS02001926           JUNCTION     0.30     0.94     8.38     0  02:46        0.92
  YS02001929           JUNCTION     0.17     0.70     8.39     0  02:46        0.69
  YS02001658           JUNCTION     1.07     1.88     9.02     0  02:47        1.50
  YS02001661           JUNCTION     0.84     1.80     9.21     0  02:47        1.35
  YS02001664           JUNCTION     0.38     0.57     8.49     0  04:32        0.56
  YS02001622           JUNCTION     1.29     1.60     8.50     0  02:30        1.50
  YS02001633           JUNCTION     1.71     1.95     8.40     0  02:56        1.94
  YS02001649           JUNCTION     1.77     2.05     8.44     0  02:43        2.05
  YS02001757           JUNCTION     1.89     2.19     8.45     0  03:18        2.18
  YS02001895           JUNCTION     0.56     1.57     8.31     0  02:54        1.56
  YS02001625           JUNCTION     1.57     1.78     8.38     0  02:31        1.78
  YS02163301           JUNCTION     1.65     1.88     8.40     0  02:39        1.88
  YS02163601           JUNCTION     1.76     1.99     8.38     0  02:55        1.98
  YS02164001           JUNCTION     1.70     1.92     8.38     0  02:39        1.91
  YS02001647           JUNCTION     1.55     1.81     8.42     0  04:28        1.79
  YSB1154              JUNCTION     0.26     0.57     9.62     0  03:01        0.57
  YSB6556              JUNCTION     0.16     0.45     9.62     0  03:02        0.45
  YSB1174              JUNCTION     0.22     0.52     9.62     0  03:01        0.51
  YSB1171              JUNCTION     0.42     0.72     9.62     0  03:01        0.72
  YS02006553           JUNCTION     0.99     1.97     8.26     0  02:58        1.96
  YS02006561           JUNCTION     0.34     1.08     7.74     0  02:45        1.07
  YS02006556           JUNCTION     0.96     1.93     8.24     0  03:00        1.93
  YS02006558           JUNCTION     1.00     1.98     8.25     0  03:00        1.97
  YS02001783           JUNCTION     0.58     2.40     8.54     0  02:28        1.46
  YS02001784           JUNCTION     0.59     1.60     7.66     0  02:28        1.41
  YS02001786           JUNCTION     0.53     1.45     7.48     0  02:28        1.25
  YS02001788           JUNCTION     0.46     1.22     7.20     0  02:28        1.12
  YS02001790           JUNCTION     0.58     1.96     7.60     0  02:27        1.29
  YS02001791           JUNCTION     0.54     1.65     7.12     0  06:04        1.27
  YS02001793           JUNCTION     0.75     3.60     8.43     0  04:38        1.80
  WSC                  OUTFALL      0.35     0.48     1.15     0  03:07        0.48
  JK-storage           STORAGE      2.90     5.80     6.60     0  02:28        5.80
  CC-storage           STORAGE      1.15     1.45     8.45     0  03:16        1.45
  XR-storage           STORAGE      6.57     7.72     5.72     0  03:00        7.72
  
  
  *******************
  Node Inflow Summary
  *******************
  
  -------------------------------------------------------------------------------------------------
                                  Maximum  Maximum                  Lateral       Total        Flow
                                  Lateral    Total  Time of Max      Inflow      Inflow     Balance
                                   Inflow   Inflow   Occurrence      Volume      Volume       Error
  Node                 Type           LPS      LPS  days hr:min    10^6 ltr    10^6 ltr     Percent
  -------------------------------------------------------------------------------------------------
  WS02001211           JUNCTION      7.35   391.98     0  03:17       0.207        10.1       0.395
  WS02001212           JUNCTION      0.00   396.62     0  03:16           0        10.1       0.239
  WS02001213           JUNCTION      0.00   400.63     0  03:16           0        10.1       0.274
  WS02003069           JUNCTION      0.32  1329.43     0  03:05     0.00902        19.1       0.167
  WS02003072           JUNCTION      0.00  1329.08     0  03:06           0          19       0.205
  WS02003073           JUNCTION      1.82  1331.14     0  03:06      0.0514          19       0.238
  WS02003060           JUNCTION     16.53  1329.05     0  03:04       0.466        19.1       0.157
  WS02003066           JUNCTION      0.00   938.79     0  03:04           0        8.61       0.043
  WS02003059           JUNCTION      0.00   405.56     0  03:15           0        10.1       0.393
  WS02003067           JUNCTION      0.00   938.25     0  03:04           0        8.61       0.093
  WS02004401           JUNCTION      0.00   939.71     0  03:02           0         8.8       0.184
  WS02004402           JUNCTION      0.00   939.97     0  03:03           0        8.78       0.178
  WS02004403           JUNCTION      0.00   939.87     0  03:02           0        8.77       0.167
  WS02004404           JUNCTION      0.16   940.87     0  03:02     0.00457        8.76       0.130
  WS02004406           JUNCTION      0.00   940.47     0  03:03           0        8.73       0.321
  WS02004409           JUNCTION      0.00   939.69     0  03:03           0         8.7       0.138
  WS02004410           JUNCTION      0.00   938.63     0  03:03           0        8.69       0.163
  WS02004411           JUNCTION      0.00   938.07     0  03:03           0        8.67       0.174
  WS02004412           JUNCTION      0.00   937.67     0  03:03           0        8.66       0.196
  WS02004413           JUNCTION      0.00   938.20     0  03:04           0        8.64       0.299
  WS02004405           JUNCTION      0.04   941.03     0  03:02     0.00107        8.75       0.198
  WS02006109           JUNCTION      1.23   915.77     0  03:02      0.0347        8.79       0.116
  WS02006110           JUNCTION      0.00   915.85     0  03:02           0        8.78       0.152
  WS02006111           JUNCTION      0.00   915.88     0  03:02           0        8.77       0.018
  WS02006112           JUNCTION     30.67   939.87     0  03:02      0.0853        8.85       0.263
  WS02006113           JUNCTION      0.00   915.86     0  03:02           0        8.77       0.059
  WS02006115           JUNCTION      0.00   939.63     0  03:02           0        8.83       0.151
  WS02006116           JUNCTION      0.00   939.79     0  03:02           0        8.81       0.140
  WS02006230           JUNCTION     10.28   531.46     0  05:24        0.29        6.35       0.147
  WS02006231           JUNCTION      0.00   521.22     0  05:23           0        6.06      -0.003
  WS02006232           JUNCTION      0.00   520.96     0  05:23           0        6.07       0.144
  WS02006234           JUNCTION      0.00   521.53     0  05:23           0        6.07      -0.016
  WS02006235           JUNCTION      0.00   521.69     0  05:23           0        6.15       0.105
  WS02006238           JUNCTION      0.00   348.20     0  07:30           0        2.87      -0.026
  WS02006240           JUNCTION      0.00   355.08     0  06:21           0        2.81       0.059
  WS02006242           JUNCTION      0.00   360.51     0  06:21           0        2.78       0.100
  WS02006243           JUNCTION      0.00   366.23     0  06:21           0        2.76      -0.164
  WS02006245           JUNCTION      0.00   370.63     0  06:20           0        2.76       0.195
  WS02006247           JUNCTION      0.00   375.30     0  06:20           0        2.75       0.032
  WS02006248           JUNCTION      0.00   379.42     0  06:20           0        2.75      -0.048
  WS02006249           JUNCTION      0.00   408.83     0  04:00           0        2.88       0.063
  WS02006239           JUNCTION      0.00   349.54     0  06:22           0        2.84      -0.163
  WS02006251           JUNCTION      0.08   406.95     0  04:00     0.00217        2.93      -0.016
  WS02006252           JUNCTION      0.00   399.96     0  06:20           0         2.4       0.008
  WS02006253           JUNCTION      3.75   143.71     0  03:01      0.0103       0.531      -0.080
  WS02006256           JUNCTION      0.00   983.00     0  02:50           0        9.81       0.007
  WS02004138           JUNCTION      0.00   380.00     0  00:00           0        9.98       0.068
  WS02004139           JUNCTION      0.32   394.45     0  00:00     0.00905        9.98       0.453
  WS02004407           JUNCTION      0.00   940.09     0  03:03           0         8.7       0.057
  WS02006228           JUNCTION      0.00   914.32     0  03:02           0        8.77       0.086
  WS02006229           JUNCTION      0.00   919.27     0  03:01           0        8.78       0.099
  WS02006280           JUNCTION      0.00   680.07     0  03:02           0        2.43       0.008
  WS02006284           JUNCTION      0.10   678.93     0  03:02      0.0027        2.43       0.047
  WS02006287           JUNCTION      0.00   677.57     0  03:02           0        2.43       0.031
  WSF200               JUNCTION      0.00   938.96     0  03:04           0         8.6       0.038
  HS02004901           JUNCTION     37.63    37.63     0  03:01       0.103       0.103       1.740
  HS02004881           JUNCTION     14.26   140.55     0  03:01      0.0422       0.463       0.088
  HS02004876           JUNCTION     25.66   127.65     0  03:01      0.0814       0.422       0.131
  HS02004870           JUNCTION     26.26   103.59     0  03:01      0.0799        0.34       0.034
  HS02004862           JUNCTION     25.49    79.37     0  03:01      0.0888       0.261       0.068
  HS02004856           JUNCTION     19.64    55.42     0  03:01      0.0601       0.173       0.844
  HS02004852           JUNCTION      0.00    37.84     0  03:01           0       0.113       0.053
  HS02004848           JUNCTION     55.75    55.75     0  03:01       0.197       0.197       0.028
  HS02004842           JUNCTION      0.00    16.84     0  03:01           0       0.097      15.492
  HS02004837           JUNCTION     50.35    65.70     0  03:01       0.318       0.402       0.204
  HS02004830           JUNCTION      0.15    64.80     0  03:01     0.00423       0.392       0.316
  HS02004824           JUNCTION     65.57   128.45     0  03:01       0.251       0.642       0.086
  HS02004817           JUNCTION      0.60   124.47     0  03:01      0.0169       0.658       2.600
  HS02004807           JUNCTION     48.45   165.84     0  03:01       0.147       0.788       0.554
  HS02004802           JUNCTION      0.00   165.33     0  03:04           0       0.785       0.506
  HS02004799           JUNCTION     38.67   446.11     0  03:01       0.119        1.42       0.191
  HS02004792           JUNCTION    184.82   411.89     0  03:01        0.54         1.3       0.033
  HS02004788           JUNCTION     58.68   233.44     0  03:01       0.219       0.758       0.052
  HS02004785           JUNCTION      0.15   182.20     0  03:01     0.00423        0.54       0.093
  HS02004777           JUNCTION      0.03   185.03     0  03:01    0.000846       0.541       0.972
  HS02004770           JUNCTION    154.22   188.98     0  03:01       0.441       0.542       0.577
  HS02004480           JUNCTION      0.00   517.17     0  03:01           0        1.66       0.070
  HS02004479           JUNCTION      0.00    75.48     0  03:02           0       0.258       0.286
  HS02004478           JUNCTION      0.00   676.96     0  03:02           0        2.43       0.012
  YS02001745           JUNCTION    438.14   438.14     0  03:01        3.01        3.02       0.377
  YS02001748           JUNCTION      0.04   544.39     0  02:33     0.00127        3.01       0.718
  YS02001751           JUNCTION      0.01   445.15     0  03:01     0.00031        2.98       0.798
  YS02001754           JUNCTION      0.26   444.89     0  03:01     0.00733        2.96       0.854
  YS02001762           JUNCTION      0.00   313.13     0  02:43           0        2.15       1.007
  YS02001765           JUNCTION      0.00   313.71     0  02:43           0        2.16       1.151
  YS02001767           JUNCTION      0.54   314.35     0  02:43      0.0151        2.18       1.677
  YS02001770           JUNCTION    552.50   699.32     0  03:17        3.37        4.03       0.806
  YS02001774           JUNCTION      0.00   699.31     0  03:16           0         2.5       1.018
  YS02001779           JUNCTION      0.01   699.32     0  03:16    0.000141        2.47       0.632
  YS02001882           JUNCTION      0.00    24.43     0  02:30           0      0.0207      11.980
  YS02001884           JUNCTION      0.00    51.12     0  02:30           0      0.0577      12.053
  YS02001759           JUNCTION    536.49   620.29     0  02:43        3.11        4.56       0.504
  YS02001887           JUNCTION    679.97   681.16     0  03:01        3.56         3.6       0.238
  YS02001890           JUNCTION      0.00   681.22     0  03:01           0        3.55       0.263
  YS02001898           JUNCTION      0.00   518.37     0  03:04           0        3.45       0.087
  YS02001901           JUNCTION      0.00   518.41     0  03:04           0        3.45       0.205
  YS02001904           JUNCTION      0.00   518.30     0  03:04           0        3.44       0.185
  YS02001907           JUNCTION      0.00  1097.79     0  03:01           0        7.77       0.312
  YS02001910           JUNCTION      0.00   581.06     0  03:01           0        4.34       0.271
  YS02001915           JUNCTION    389.26   580.61     0  03:01        2.52        4.37       0.139
  YS02001918           JUNCTION      0.00   239.16     0  02:47           0        1.87       0.077
  YS02001619           JUNCTION    380.66   380.66     0  03:01        2.51        2.51       0.489
  YS02001629           JUNCTION      0.00   195.51     0  02:39           0        1.59       1.853
  YS02001641           JUNCTION      0.00   411.68     0  02:39           0        4.45       0.481
  YS02001644           JUNCTION    416.76  1528.10     0  03:01         2.9        11.7       0.231
  YS02001652           JUNCTION      0.00   502.74     0  03:01           0        2.62       0.912
  YS02001655           JUNCTION      0.15   502.70     0  03:01     0.00434        2.65       0.933
  YS02001920           JUNCTION      2.87   239.23     0  02:47      0.0809        1.85       0.154
  YS02001923           JUNCTION      0.04   237.49     0  02:47     0.00106        1.76       0.056
  YS02001926           JUNCTION      0.05   207.28     0  02:46     0.00147        1.76       0.189
  YS02001929           JUNCTION    189.18   189.18     0  03:01        1.75        1.75       0.036
  YS02001658           JUNCTION      0.00   607.26     0  02:30           0        2.68       0.772
  YS02001661           JUNCTION      0.00   641.94     0  02:50           0        2.95       0.126
  YS02001664           JUNCTION    492.63   492.63     0  03:01        2.67        2.94       0.213
  YS02001622           JUNCTION      0.00   381.07     0  03:01           0         2.5       1.292
  YS02001633           JUNCTION    423.29   423.29     0  03:01        2.99        4.52       0.722
  YS02001649           JUNCTION      0.00   869.53     0  02:40           0        6.58       0.571
  YS02001757           JUNCTION      0.00  1677.13     0  02:40           0        9.19       1.010
  YS02001895           JUNCTION      0.00   518.06     0  03:03           0        3.45       0.148
  YS02001625           JUNCTION      0.00   408.29     0  03:01           0        2.47       1.605
  YS02163301           JUNCTION      0.00   207.46     0  02:32           0        1.57       1.574
  YS02163601           JUNCTION      0.11   411.59     0  02:39      0.0031        4.48       0.679
  YS02164001           JUNCTION      0.00   411.66     0  02:39           0        4.46       0.462
  YS02001647           JUNCTION      0.00   807.50     0  03:18           0        5.84       0.488
  YSB1154              JUNCTION     44.76    44.76     0  03:01       0.144       0.144       1.016
  YSB6556              JUNCTION      0.00    43.28     0  03:01           0       0.145       0.870
  YSB1174              JUNCTION     38.10    38.10     0  03:01       0.106       0.107       1.221
  YSB1171              JUNCTION      0.00    76.93     0  03:01           0       0.257       2.525
  YS02006553           JUNCTION      0.00   709.49     0  03:46           0        6.69       0.225
  YS02006561           JUNCTION      0.00   984.05     0  03:00           0        9.91       0.007
  YS02006556           JUNCTION      0.00   709.60     0  03:46           0        6.69       0.174
  YS02006558           JUNCTION    587.14   984.82     0  03:00        3.28        9.94       0.052
  YS02001783           JUNCTION      0.00   983.92     0  03:00           0        9.91       0.022
  YS02001784           JUNCTION      1.06   984.74     0  02:59      0.0299        9.94       0.036
  YS02001786           JUNCTION      0.06   984.64     0  03:00     0.00159        9.94       0.035
  YS02001788           JUNCTION      0.07   984.88     0  03:00       0.002        9.93       0.023
  YS02001790           JUNCTION      0.15   985.23     0  03:00     0.00437        9.94       0.013
  YS02001791           JUNCTION      0.00   985.34     0  03:00           0        9.93       0.013
  YS02001793           JUNCTION      0.00   986.00     0  03:00           0        9.94      -0.009
  WSC                  OUTFALL       0.00  1331.41     0  03:07           0          19       0.000
  JK-storage           STORAGE       0.00   985.51     0  03:00           0        10.1      -9.866
  CC-storage           STORAGE       0.00  1677.03     0  02:40           0        6.53       1.010
  XR-storage           STORAGE    1024.87  1024.87     0  03:01        12.7        13.3      -0.007
  
  
  **********************
  Node Surcharge Summary
  **********************
  
  Surcharging occurs when water rises above the top of the highest conduit.
  ---------------------------------------------------------------------
                                               Max. Height   Min. Depth
                                   Hours       Above Crown    Below Rim
  Node                 Type      Surcharged         Meters       Meters
  ---------------------------------------------------------------------
  WS02004401           JUNCTION        0.36          0.237        1.423
  WS02004402           JUNCTION        0.38          0.225        1.515
  WS02004403           JUNCTION        0.39          0.200        1.830
  WS02004404           JUNCTION        0.52          0.246        2.534
  WS02004406           JUNCTION        0.48          0.164        2.286
  WS02004413           JUNCTION        0.17          0.023        2.177
  WS02004405           JUNCTION        0.50          0.220        2.580
  WS02006109           JUNCTION        3.07          0.839        0.981
  WS02006110           JUNCTION        1.03          0.542        1.308
  WS02006111           JUNCTION        0.13          0.075        1.795
  WS02006112           JUNCTION        1.49          0.561        1.119
  WS02006113           JUNCTION        0.15          0.123        1.807
  WS02006115           JUNCTION        0.29          0.208        2.042
  WS02006116           JUNCTION        0.30          0.201        2.089
  WS02006230           JUNCTION        0.79          0.797        0.773
  WS02006231           JUNCTION        1.16          0.813        0.717
  WS02006232           JUNCTION        2.59          0.925        0.555
  WS02006234           JUNCTION        1.97          0.806        0.434
  WS02006235           JUNCTION        2.16          0.832        0.458
  WS02006238           JUNCTION        2.21          0.838        0.592
  WS02006240           JUNCTION        1.68          0.694        0.696
  WS02006242           JUNCTION        1.78          0.700        0.120
  WS02006243           JUNCTION        1.23          0.567        0.203
  WS02006245           JUNCTION        1.05          0.523        0.327
  WS02006247           JUNCTION        1.05          0.525        0.235
  WS02006248           JUNCTION        0.86          0.380        0.000
  WS02006249           JUNCTION        0.91          0.390        0.000
  WS02006239           JUNCTION        1.90          0.750        0.540
  WS02006251           JUNCTION        0.34          0.235        0.945
  WS02006252           JUNCTION        1.30          0.321        0.779
  WS02006253           JUNCTION        0.38          0.286        2.194
  WS02006256           JUNCTION        6.78          2.050        0.000
  WS02006228           JUNCTION        3.03          1.001        1.199
  YS02001748           JUNCTION        5.22          0.452        0.738
  YS02001751           JUNCTION        5.38          0.586        0.614
  YS02001754           JUNCTION        5.58          0.800        0.350
  YS02001762           JUNCTION        5.75          1.050        0.100
  YS02001765           JUNCTION        5.72          0.997        0.103
  YS02001767           JUNCTION        5.69          0.954        0.076
  YS02001770           JUNCTION        5.68          0.907        0.013
  YS02001774           JUNCTION        5.74          0.988        0.062
  YS02001779           JUNCTION        5.56          0.680        0.000
  YS02001882           JUNCTION        1.13          0.638        0.192
  YS02001884           JUNCTION        1.15          0.675        0.195
  YS02001759           JUNCTION        5.78          1.088        0.122
  YS02001887           JUNCTION        1.22          0.769        0.181
  YS02001890           JUNCTION        1.24          0.760        0.000
  YS02001898           JUNCTION        1.09          0.531        0.209
  YS02001901           JUNCTION        1.19          0.678        0.192
  YS02001904           JUNCTION        1.17          0.638        0.212
  YS02001907           JUNCTION        1.91          0.950        0.000
  YS02001910           JUNCTION        1.29          0.783        0.317
  YS02001915           JUNCTION        1.12          0.600        0.400
  YS02001918           JUNCTION        0.94          0.287        0.523
  YS02001619           JUNCTION        5.36          0.610        0.000
  YS02001629           JUNCTION        5.38          0.470        0.000
  YS02001641           JUNCTION        5.73          0.937        0.163
  YS02001644           JUNCTION        5.73          0.920        0.000
  YS02001652           JUNCTION        5.61          1.028        0.102
  YS02001655           JUNCTION        5.40          1.200        0.000
  YS02001920           JUNCTION        0.97          0.371        0.769
  YS02001658           JUNCTION        5.25          0.876        0.424
  YS02001661           JUNCTION        0.10          0.732        0.658
  YS02001622           JUNCTION        5.41          0.596        0.024
  YS02001633           JUNCTION        5.71          0.925        0.135
  YS02001649           JUNCTION        5.75          1.050        0.000
  YS02001757           JUNCTION        5.86          1.188        0.022
  YS02001895           JUNCTION        1.10          0.567        0.183
  YS02001625           JUNCTION        5.64          0.780        0.000
  YS02163301           JUNCTION        5.68          0.883        0.147
  YS02163601           JUNCTION        5.75          0.986        0.094
  YS02164001           JUNCTION        5.72          0.918        0.182
  YS02001647           JUNCTION        5.62          0.813        0.087
  YS02006553           JUNCTION        1.98          0.971        0.219
  YS02006561           JUNCTION        0.99          0.280        0.870
  YS02006556           JUNCTION        1.51          0.893        0.457
  YS02006558           JUNCTION        1.47          0.880        0.520
  YS02001783           JUNCTION        1.39          1.600        0.000
  YS02001784           JUNCTION        1.37          0.796        0.694
  YS02001786           JUNCTION        1.31          0.648        0.782
  YS02001788           JUNCTION        1.26          0.425        1.055
  YS02001790           JUNCTION        2.11          1.157        0.000
  YS02001791           JUNCTION        2.18          0.850        1.070
  YS02001793           JUNCTION        2.42          2.600        0.000
  
  
  *********************
  Node Flooding Summary
  *********************
  
  Flooding refers to all water that overflows a node, whether it ponds or not.
  --------------------------------------------------------------------------
                                                             Total   Maximum
                                 Maximum   Time of Max       Flood    Ponded
                        Hours       Rate    Occurrence      Volume     Depth
  Node                 Flooded       LPS   days hr:min    10^6 ltr    Meters
  --------------------------------------------------------------------------
  WS02006248              0.08     14.42      0  03:03       0.002     0.000
  WS02006249              0.33    227.84      0  03:00       0.124     0.000
  WS02006256              3.82    831.24      0  03:02       6.480     0.000
  YS02001779              3.00    699.32      0  03:16       2.456     0.000
  YS02001890              0.34    164.35      0  03:01       0.085     0.000
  YS02001907              0.81    699.43      0  03:01       1.073     0.000
  YS02001619              0.01      9.08      0  02:30       0.000     0.000
  YS02001629              0.01      6.34      0  02:31       0.000     0.000
  YS02001644              4.72   1528.07      0  03:01      10.236     0.000
  YS02001655              0.01    128.01      0  02:25       0.000     0.000
  YS02001649              0.01     24.31      0  02:47       0.000     0.000
  YS02001625              1.37    407.92      0  03:01       0.855     0.000
  YS02001783              0.01    157.13      0  02:28       0.000     0.000
  YS02001790              0.01    191.06      0  02:27       0.000     0.000
  YS02001793              0.01    308.32      0  04:38       0.000     0.000
  JK-storage              0.97    789.53      0  02:40       1.260     0.000
  XR-storage              3.43    644.66      0  03:01       2.558     0.000
  
  
  **********************
  Storage Volume Summary
  **********************
  
  --------------------------------------------------------------------------------------------------
                         Average     Avg  Evap Exfil       Maximum     Max    Time of Max    Maximum
                          Volume    Pcnt  Pcnt  Pcnt        Volume    Pcnt     Occurrence    Outflow
  Storage Unit           1000 m3    Full  Loss  Loss       1000 m3    Full    days hr:min        LPS
  --------------------------------------------------------------------------------------------------
  JK-storage               0.146      50     0     0         0.291     100       0  02:28     983.00
  CC-storage               3.206      20     0     0         4.046      26       0  03:16     399.96
  XR-storage               0.788      85     0     0         0.926     100       0  03:00     380.00
  
  
  ***********************
  Outfall Loading Summary
  ***********************
  
  ---------------------------------------------------------------------------------------------------------------------------------
                         Flow       Avg       Max       Total         Total         Total         Total         Total         Total
                         Freq      Flow      Flow      Volume           COD            SS            TN            TP         NH4-N
  Outfall Node           Pcnt       LPS       LPS    10^6 ltr            kg            kg            kg            kg            kg
  ---------------------------------------------------------------------------------------------------------------------------------
  WSC                  100.00    754.50   1331.41      18.988      2300.750      3974.507       147.546        17.377        89.305
  ---------------------------------------------------------------------------------------------------------------------------------
  System               100.00    754.50   1331.41      18.988      2300.750      3974.507       147.546        17.377        89.305
  
  
  ********************
  Link Flow Summary
  ********************
  
  -----------------------------------------------------------------------------
                                 Maximum  Time of Max   Maximum    Max/    Max/
                                  |Flow|   Occurrence   |Veloc|    Full    Full
  Link                 Type          LPS  days hr:min     m/sec    Flow   Depth
  -----------------------------------------------------------------------------
  WS02003066WSF200     CONDUIT    938.96     0  03:04      3.00    0.16    0.32
  WS02006287WS02006284 CONDUIT    678.84     0  03:02      2.38    0.31    0.39
  WS02006284WS02006280 CONDUIT    680.07     0  03:02      2.62    0.28    0.37
  WS02006280WS02006229 CONDUIT    680.11     0  03:02      3.90    0.15    0.50
  WS02006229WS02006228 CONDUIT    914.32     0  03:02      1.82    3.03    1.00
  WS02006256WS02006235 CONDUIT    264.10     0  00:12      3.74    2.80    1.00
  WS02006253WS02006251 CONDUIT    144.47     0  03:01      0.64    0.43    1.00
  WS02006252WS02006251 CONDUIT    400.29     0  05:20      3.19    1.47    1.00
  WS02006251WS02006249 CONDUIT    408.83     0  04:00      1.13    1.18    1.00
  WS02006249WS02006248 CONDUIT    379.42     0  06:20      1.19    2.08    1.00
  WS02006248WS02006247 CONDUIT    375.30     0  06:20      1.16    0.82    1.00
  WS02006247WS02006245 CONDUIT    370.63     0  06:20      1.13    2.94    1.00
  WS02006245WS02006243 CONDUIT    366.23     0  06:21      1.17    1.08    1.00
  WS02006243WS02006242 CONDUIT    360.51     0  06:21      1.05    0.77    1.00
  WS02006242WS02006240 CONDUIT    355.08     0  06:21      0.99    1.41    1.00
  WS02006240WS02006239 CONDUIT    349.54     0  06:22      1.03    1.10    1.00
  WS02006239WS02006238 CONDUIT    348.20     0  07:30      0.94    1.11    1.00
  WS02006238WS02006235 CONDUIT    350.42     0  07:30      1.05    0.78    1.00
  WS02006235WS02006234 CONDUIT    521.53     0  05:23      1.36    5.50    1.00
  WS02006234WS02006232 CONDUIT    520.96     0  05:23      1.35    1.05    1.00
  WS02006232WS02006231 CONDUIT    521.22     0  05:23      1.35    1.09    1.00
  WS02006231WS02006230 CONDUIT    521.18     0  05:24      1.35    7.91    1.00
  WS02006230WS02006229 CONDUIT    531.29     0  05:23      1.38   11.82    1.00
  WS02006228WS02006109 CONDUIT    914.54     0  03:02      1.82    4.00    1.00
  WS02006116WS02004401 CONDUIT    939.71     0  03:02      1.20    1.30    1.00
  WS02006115WS02006116 CONDUIT    939.79     0  03:02      1.20    1.21    1.00
  WS02006113WS02006111 CONDUIT    915.88     0  03:02      2.60    1.10    1.00
  WS02006112WS02006115 CONDUIT    939.63     0  03:02      1.20    0.55    1.00
  WS02006111WS02006112 CONDUIT    916.26     0  03:03      1.82    0.44    1.00
  WS02006110WS02006113 CONDUIT    915.86     0  03:02      1.82    0.83    1.00
  WS02006109WS02006110 CONDUIT    915.85     0  03:02      1.82    1.76    1.00
  WS02004411WS02004412 CONDUIT    937.67     0  03:03      1.24    1.33    0.92
  WS02004401WS02004402 CONDUIT    939.97     0  03:03      1.20    1.13    1.00
  WS02004413WS02003067 CONDUIT    938.25     0  03:04      1.55    0.40    0.72
  WS02004412WS02004413 CONDUIT    938.20     0  03:04      1.22    0.63    0.95
  WS02004410WS02004411 CONDUIT    938.07     0  03:03      1.23    1.28    0.94
  WS02004409WS02004410 CONDUIT    938.63     0  03:03      1.22    1.21    0.95
  WS02004407WS02004409 CONDUIT    939.69     0  03:03      1.68    0.33    0.68
  WS02004406WS02004407 CONDUIT    940.09     0  03:03      1.60    0.42    0.70
  WS02004405WS02004406 CONDUIT    940.47     0  03:03      1.20    1.86    1.00
  WS02004404WS02004405 CONDUIT    940.99     0  03:02      1.20    9.22    1.00
  WS02004403WS02004404 CONDUIT    940.70     0  03:02      1.20    0.68    1.00
  WS02004402WS02004403 CONDUIT    939.87     0  03:02      1.20    1.35    1.00
  WS02004139WS02001211 CONDUIT    384.63     0  03:17      0.90    0.49    0.64
  WS02004138WS02004139 CONDUIT    394.13     0  00:00      3.62    0.08    0.47
  WS02003067WS02003066 CONDUIT    938.79     0  03:04      1.65    0.30    0.50
  WS02001213WS02003059 CONDUIT    405.56     0  03:15      0.89    0.67    0.87
  WS02001212WS02001213 CONDUIT    400.63     0  03:16      1.32    0.62    0.56
  WS02001211WS02001212 CONDUIT    396.62     0  03:16      0.78    0.30    0.71
  WS02003072WS02003073 CONDUIT   1329.32     0  03:06      1.96    2.87    0.58
  WS02003069WS02003072 CONDUIT   1329.08     0  03:06      1.82    0.64    0.62
  WS02003060WS02003069 CONDUIT   1329.11     0  03:05      2.03    0.52    0.56
  WS02003059WS02003060 CONDUIT    412.13     0  03:16      0.95    0.27    0.77
  HS02004901HS02004770 CONDUIT     37.25     0  03:01      0.10    0.14    0.53
  HS02004876HS02004881 CONDUIT    127.62     0  03:01      1.21    1.36    0.15
  HS02004870HS02004876 CONDUIT    103.09     0  03:01      0.82    0.07    0.18
  HS02004842HS02004848 CONDUIT     16.84     0  03:01      0.07    0.01    0.33
  HS02004837HS02004842 CONDUIT     17.91     0  03:03      0.42    0.01    0.35
  HS02004830HS02004837 CONDUIT     64.65     0  03:01      0.67    0.06    0.14
  HS02004824HS02004830 CONDUIT     64.11     0  03:02      0.62    0.08    0.16
  HS02004817HS02004824 CONDUIT    123.87     0  03:01      0.31    0.06    0.58
  HS02004770HS02004777 CONDUIT    185.00     0  03:01      0.49    0.34    0.54
  HS02004799HS02004480 CONDUIT    444.33     0  03:01      1.07    0.56    0.60
  HS02004792HS02004799 CONDUIT    408.47     0  03:01      1.20    0.25    0.49
  HS02004788HS02004792 CONDUIT    232.94     0  03:02      1.28    0.15    0.26
  HS02004785HS02004788 CONDUIT    181.76     0  03:02      0.91    1.37    0.29
  HS02004777HS02004785 CONDUIT    182.05     0  03:01      0.57    0.22    0.45
  HS02004480HS02004478 CONDUIT    517.30     0  03:01      1.55    2.18    0.48
  HS02004479HS02004480 CONDUIT     77.30     0  03:02      0.30    0.07    0.57
  HS02004862HS02004870 CONDUIT     79.02     0  03:01      0.80    0.09    0.14
  HS02004848HS02004852 CONDUIT     37.84     0  03:01      0.53    0.04    0.10
  HS02004856HS02004862 CONDUIT     54.76     0  03:01      0.59    0.05    0.13
  HS02004852HS02004856 CONDUIT     37.75     0  03:02      0.34    0.04    0.16
  HS02004802HS02004478 CONDUIT    170.16     0  03:04      0.54    0.15    0.48
  HS02004478WS02006287 CONDUIT    677.57     0  03:02      2.11    0.19    0.36
  HS02004817HS02004807 CONDUIT    128.13     0  03:04      0.25    0.08    0.75
  HS02004807HS02004802 CONDUIT    165.33     0  03:04      0.46    0.32    0.53
  YS02001759YS02001757 CONDUIT    619.47     0  02:43      0.79    0.44    1.00
  YS02001762YS02001759 CONDUIT    312.95     0  02:43      0.40    0.36    1.00
  YS02001765YS02001762 CONDUIT    313.13     0  02:43      0.40    0.29    1.00
  YS02001770YS02001767 CONDUIT    313.81     0  02:43      0.40    1.24    1.00
  YS02001774YS02001770 CONDUIT    699.31     0  03:16      0.89    0.45    1.00
  YS02001779YS02001774 CONDUIT    699.31     0  03:16      0.89    0.35    1.00
  YS02001649YS02001757 CONDUIT    869.61     0  02:40      1.11    0.53    1.00
  YS02001767YS02001765 CONDUIT    313.71     0  02:43      0.40    0.39    1.00
  YS02006561YS02001783 CONDUIT    983.92     0  03:00      2.14    0.51    1.00
  YS02001783YS02001784 CONDUIT    983.68     0  02:59      1.96    1.36    1.00
  YS02001784YS02001785 CONDUIT    984.59     0  03:00      1.96    2.29    1.00
  YS02001788YS02001790 CONDUIT    985.07     0  03:00      2.44    0.73    1.00
  YS02001790YS02001791 CONDUIT    985.34     0  03:00      2.91    1.07    1.00
  YS02001791YS02001793 CONDUIT    986.00     0  03:00      5.75    0.42    1.00
  YS02001910YS02001907 CONDUIT    580.86     0  03:01      0.74    0.33    1.00
  YS02001786YS02001788 CONDUIT    984.81     0  03:00      2.31    1.90    1.00
  YS02001915YS02001910 CONDUIT    581.06     0  03:01      0.74    0.29    1.00
  YS02001918YS02001915 CONDUIT    245.56     0  03:46      0.44    0.14    1.00
  YS02001923YS02001920 CONDUIT    236.36     0  02:47      0.75    0.11    1.00
  YS02001926YS02001923 CONDUIT    237.45     0  02:47      0.86    0.34    0.93
  YS02001929YS02001926 CONDUIT    207.23     0  02:46      0.92    0.10    0.81
  YS02001920YS02001918 CONDUIT    239.16     0  02:47      0.72    0.23    1.00
  YS02001629YS02163301 CONDUIT    207.46     0  02:32      0.26    0.26    1.00
  YS02001619YS02001622 CONDUIT    381.07     0  03:01      0.59    0.56    1.00
  YS02001622YS02001625 CONDUIT    381.49     0  03:01      0.49    0.20    1.00
  YS02001625YS02001629 CONDUIT    195.51     0  02:39      0.25    0.09    1.00
  YS02163301YS02001633 CONDUIT    209.96     0  02:32      0.27    0.20    1.00
  YS02163601YS02164001 CONDUIT    411.66     0  02:39      0.52    0.36    1.00
  YS02164001YS02001641 CONDUIT    411.68     0  02:39      0.52    0.56    1.00
  YS02001641YS02001644 CONDUIT    411.87     0  02:39      0.52    1.33    1.00
  YS02001647YS02001649 CONDUIT    807.50     0  03:18      1.03    0.43    1.00
  YS02006553YS02006556 CONDUIT    709.60     0  03:46      0.90    0.61    1.00
  YS02006556YS02006558 CONDUIT    709.81     0  03:46      0.90    0.56    1.00
  YSB6556YSB1171       CONDUIT     42.82     0  03:02      0.13    0.04    0.82
  YS02001907YS02006553 CONDUIT    709.49     0  03:46      0.79    0.83    1.00
  YS02006558YS02006561 CONDUIT    984.05     0  03:00      3.48    2.18    1.00
  YS02001633YS02163601 CONDUIT    411.48     0  02:39      0.52    0.43    1.00
  YS02001644YS02001647 CONDUIT    807.34     0  03:18      1.03    0.47    1.00
  YS02001745YS02001748 CONDUIT    544.34     0  02:33      1.46    0.21    0.98
  YS02001748YS02001751 CONDUIT    445.14     0  03:01      1.03    0.22    1.00
  YS02001751YS02001754 CONDUIT    444.63     0  03:01      0.88    0.21    1.00
  YS02001754YS02001757 CONDUIT    444.33     0  03:01      0.57    0.18    1.00
  YS02001882YS02001884 CONDUIT     24.43     0  02:30      0.12    0.03    1.00
  YS02001884YS02001887 CONDUIT     51.12     0  02:30      0.08    0.07    1.00
  YS02001890YS02001895 CONDUIT    518.06     0  03:03      0.66    0.24    1.00
  YS02001895YS02001898 CONDUIT    518.37     0  03:04      0.66    0.90    1.00
  YS02001898YS02001901 CONDUIT    518.41     0  03:04      0.66    0.33    1.00
  YS02001901YS02001904 CONDUIT    518.30     0  03:04      0.66    0.80    1.00
  YS02001904YS02001907 CONDUIT    518.35     0  03:04      0.66    0.18    1.00
  YS02001887YS02001890 CONDUIT    681.22     0  03:01      0.87    1.17    1.00
  YS02001652YS02001649 CONDUIT    502.75     0  03:01      0.64    0.25    1.00
  YS02001655YS02001652 CONDUIT    502.74     0  03:01      0.94    0.24    1.00
  YS02001658YS02001655 CONDUIT    502.55     0  03:01      1.18    0.21    1.00
  YS02001661YS02001658 CONDUIT    607.26     0  02:30      1.52    0.24    1.00
  YS02001664YS02001661 CONDUIT    641.94     0  02:50      1.42    0.20    0.77
  YSB1154YSB6556       CONDUIT     43.28     0  03:01      0.18    0.08    0.73
  YSB1174YSB1171       CONDUIT     36.65     0  03:01      0.11    0.06    0.85
  YSB1171HS02004479    CONDUIT     75.48     0  03:02      0.54    0.05    0.68
  HS02004881HS02006253 CONDUIT    140.47     0  03:01      2.34    0.03    0.54
  YS02001793JiankangQianchi CONDUIT    985.51     0  03:00     16.42    0.08    1.00
  YS02001757CaochengTiaoxuchi CONDUIT   1677.03     0  02:40      2.17    0.74    1.00
  WSF200WS02003060     CONDUIT    939.37     0  03:04      1.93    0.21    0.45
  1                    CONDUIT   1331.41     0  03:07      3.59    0.46    0.48
  CC-Pump-1            PUMP       200.00     0  03:40              1.00
  CC-Pump-2            PUMP       199.98     0  06:20              1.00
  JK-Pump-1            PUMP       300.00     0  02:00              1.00
  JK-Pump-2            PUMP       683.00     0  02:50              1.00
  XR-Pump-1            PUMP        95.00     0  00:00              1.00
  XR-Pump-2            PUMP        95.00     0  00:00              1.00
  XR-Pump-3            PUMP        95.00     0  00:00              1.00
  XR-Pump-4            PUMP        95.00     0  00:00              1.00
  
  
  ***************************
  Flow Classification Summary
  ***************************
  
  -------------------------------------------------------------------------------------
                      Adjusted    ---------- Fraction of Time in Flow Class ---------- 
                       /Actual         Up    Down  Sub   Sup   Up    Down  Norm  Inlet 
  Conduit               Length    Dry  Dry   Dry   Crit  Crit  Crit  Crit  Ltd   Ctrl  
  -------------------------------------------------------------------------------------
  WS02003066WSF200        1.00   0.01  0.05  0.00  0.00  0.94  0.00  0.00  0.58  0.00
  WS02006287WS02006284    1.00   0.03  0.02  0.00  0.59  0.36  0.00  0.00  0.65  0.00
  WS02006284WS02006280    1.00   0.04  0.00  0.00  0.00  0.00  0.00  0.96  0.00  0.00
  WS02006280WS02006229    1.00   0.04  0.00  0.00  0.01  0.02  0.00  0.93  0.00  0.00
  WS02006229WS02006228    1.00   0.00  0.00  0.00  1.00  0.00  0.00  0.00  0.00  0.00
  WS02006256WS02006235    1.00   0.01  0.00  0.00  0.99  0.00  0.00  0.00  0.00  0.00
  WS02006253WS02006251    1.00   0.02  0.02  0.00  0.96  0.00  0.01  0.00  0.00  0.00
  WS02006252WS02006251    1.00   0.19  0.00  0.00  0.06  0.00  0.75  0.00  0.00  0.00
  WS02006251WS02006249    1.00   0.00  0.00  0.00  1.00  0.00  0.00  0.00  0.36  0.00
  WS02006249WS02006248    1.00   0.00  0.00  0.00  0.87  0.00  0.12  0.00  0.00  0.00
  WS02006248WS02006247    1.00   0.01  0.00  0.00  0.99  0.00  0.00  0.01  0.19  0.00
  WS02006247WS02006245    1.00   0.01  0.00  0.00  0.98  0.00  0.00  0.01  0.00  0.00
  WS02006245WS02006243    1.00   0.01  0.00  0.00  0.94  0.00  0.00  0.05  0.01  0.00
  WS02006243WS02006242    1.00   0.01  0.00  0.00  0.99  0.00  0.00  0.00  0.26  0.00
  WS02006242WS02006240    1.00   0.01  0.00  0.00  0.98  0.00  0.01  0.00  0.00  0.00
  WS02006240WS02006239    1.00   0.01  0.00  0.00  0.92  0.00  0.00  0.07  0.01  0.00
  WS02006239WS02006238    1.00   0.01  0.00  0.00  0.99  0.00  0.00  0.00  0.12  0.00
  WS02006238WS02006235    1.00   0.01  0.00  0.00  0.99  0.00  0.00  0.00  0.00  0.00
  WS02006235WS02006234    1.00   0.01  0.00  0.00  0.94  0.00  0.05  0.00  0.00  0.00
  WS02006234WS02006232    1.00   0.01  0.00  0.00  0.99  0.00  0.00  0.00  0.08  0.00
  WS02006232WS02006231    1.00   0.01  0.00  0.00  0.99  0.00  0.00  0.00  0.00  0.00
  WS02006231WS02006230    1.00   0.01  0.00  0.00  0.65  0.00  0.34  0.00  0.00  0.00
  WS02006230WS02006229    1.00   0.00  0.00  0.00  0.99  0.00  0.00  0.01  0.00  0.00
  WS02006228WS02006109    1.00   0.00  0.00  0.00  1.00  0.00  0.00  0.00  0.00  0.00
  WS02006116WS02004401    1.00   0.01  0.00  0.00  0.99  0.00  0.00  0.00  0.00  0.00
  WS02006115WS02006116    1.00   0.01  0.00  0.00  0.98  0.00  0.00  0.00  0.00  0.00
  WS02006113WS02006111    1.00   0.01  0.00  0.00  0.04  0.95  0.00  0.00  0.20  0.00
  WS02006112WS02006115    1.00   0.01  0.00  0.00  0.98  0.00  0.00  0.00  0.00  0.00
  WS02006111WS02006112    1.00   0.01  0.00  0.00  0.99  0.00  0.00  0.00  0.90  0.00
  WS02006110WS02006113    1.00   0.00  0.01  0.00  0.99  0.00  0.00  0.00  0.00  0.00
  WS02006109WS02006110    1.00   0.00  0.00  0.00  0.99  0.00  0.00  0.00  0.00  0.00
  WS02004411WS02004412    1.00   0.03  0.00  0.00  0.97  0.00  0.00  0.00  0.00  0.00
  WS02004401WS02004402    1.00   0.01  0.00  0.00  0.99  0.00  0.00  0.00  0.00  0.00
  WS02004413WS02003067    1.00   0.03  0.02  0.00  0.00  0.00  0.95  0.00  0.00  0.00
  WS02004412WS02004413    1.00   0.03  0.00  0.00  0.97  0.00  0.00  0.00  0.02  0.00
  WS02004410WS02004411    1.00   0.03  0.00  0.00  0.97  0.00  0.00  0.00  0.03  0.00
  WS02004409WS02004410    1.00   0.03  0.00  0.00  0.97  0.00  0.00  0.00  0.04  0.00
  WS02004407WS02004409    1.00   0.03  0.00  0.00  0.97  0.00  0.00  0.00  0.91  0.00
  WS02004406WS02004407    1.00   0.00  0.03  0.00  0.97  0.00  0.00  0.00  0.00  0.00
  WS02004405WS02004406    1.00   0.00  0.00  0.00  1.00  0.00  0.00  0.00  0.02  0.00
  WS02004404WS02004405    1.00   0.00  0.00  0.00  1.00  0.00  0.00  0.00  0.00  0.00
  WS02004403WS02004404    1.00   0.00  0.02  0.00  0.98  0.00  0.00  0.00  0.00  0.00
  WS02004402WS02004403    1.00   0.02  0.00  0.00  0.98  0.00  0.00  0.00  0.00  0.00
  WS02004139WS02001211    1.00   0.00  0.00  0.00  1.00  0.00  0.00  0.00  0.00  0.00
  WS02004138WS02004139    1.00   0.00  0.00  0.00  1.00  0.00  0.00  0.00  1.00  0.00
  WS02003067WS02003066    1.00   0.05  0.01  0.00  0.94  0.00  0.00  0.00  0.00  0.00
  WS02001213WS02003059    1.00   0.00  0.00  0.00  1.00  0.00  0.00  0.00  0.00  0.00
  WS02001212WS02001213    1.00   0.00  0.00  0.00  0.92  0.00  0.08  0.00  0.00  0.00
  WS02001211WS02001212    1.00   0.00  0.00  0.00  1.00  0.00  0.00  0.00  0.00  0.00
  WS02003072WS02003073    1.00   0.00  0.00  0.00  0.00  0.00  0.00  1.00  0.00  0.00
  WS02003069WS02003072    1.00   0.00  0.00  0.00  1.00  0.00  0.00  0.00  0.11  0.00
  WS02003060WS02003069    1.00   0.00  0.00  0.00  0.99  0.01  0.00  0.00  0.08  0.00
  WS02003059WS02003060    1.00   0.00  0.00  0.00  1.00  0.00  0.00  0.00  0.00  0.00
  HS02004901HS02004770    1.00   0.04  0.00  0.00  0.96  0.00  0.00  0.00  0.00  0.00
  HS02004876HS02004881    1.00   0.01  0.00  0.00  0.91  0.09  0.00  0.00  0.00  0.00
  HS02004870HS02004876    1.00   0.00  0.00  0.00  0.99  0.00  0.00  0.00  0.95  0.00
  HS02004842HS02004848    1.00   0.00  0.04  0.00  0.96  0.00  0.00  0.00  0.54  0.00
  HS02004837HS02004842    1.00   0.00  0.00  0.00  1.00  0.00  0.00  0.00  0.11  0.00
  HS02004830HS02004837    1.00   0.00  0.00  0.00  1.00  0.00  0.00  0.00  0.99  0.00
  HS02004824HS02004830    1.00   0.00  0.00  0.00  1.00  0.00  0.00  0.00  0.01  0.00
  HS02004817HS02004824    1.00   0.00  0.00  0.00  1.00  0.00  0.00  0.00  0.97  0.00
  HS02004770HS02004777    1.00   0.00  0.04  0.00  0.96  0.00  0.00  0.00  0.03  0.00
  HS02004799HS02004480    1.00   0.00  0.01  0.00  0.95  0.00  0.03  0.00  0.00  0.00
  HS02004792HS02004799    1.00   0.00  0.00  0.00  1.00  0.00  0.00  0.00  0.98  0.00
  HS02004788HS02004792    1.00   0.00  0.00  0.00  1.00  0.00  0.00  0.00  0.98  0.00
  HS02004785HS02004788    1.00   0.00  0.00  0.00  1.00  0.00  0.00  0.00  0.00  0.00
  HS02004777HS02004785    1.00   0.00  0.00  0.00  1.00  0.00  0.00  0.00  0.12  0.00
  HS02004480HS02004478    1.00   0.04  0.00  0.00  0.69  0.00  0.00  0.27  0.00  0.00
  HS02004479HS02004480    1.00   0.01  0.00  0.00  0.99  0.00  0.00  0.00  0.12  0.00
  HS02004862HS02004870    1.00   0.00  0.00  0.00  1.00  0.00  0.00  0.00  0.04  0.00
  HS02004848HS02004852    1.00   0.04  0.00  0.00  0.96  0.00  0.00  0.00  0.64  0.00
  HS02004856HS02004862    1.00   0.00  0.05  0.00  0.95  0.00  0.00  0.00  0.83  0.00
  HS02004852HS02004856    1.00   0.04  0.00  0.00  0.96  0.00  0.00  0.00  0.81  0.00
  HS02004802HS02004478    1.00   0.04  0.00  0.00  0.96  0.00  0.00  0.00  0.02  0.00
  HS02004478WS02006287    1.00   0.05  0.00  0.00  0.76  0.19  0.00  0.00  0.65  0.00
  HS02004817HS02004807    1.00   0.00  0.04  0.00  0.96  0.00  0.00  0.00  0.01  0.00
  HS02004807HS02004802    1.00   0.04  0.00  0.00  0.96  0.00  0.00  0.00  0.00  0.00
  YS02001759YS02001757    1.00   0.00  0.00  0.00  1.00  0.00  0.00  0.00  0.16  0.00
  YS02001762YS02001759    1.00   0.00  0.00  0.00  1.00  0.00  0.00  0.00  0.03  0.00
  YS02001765YS02001762    1.00   0.00  0.00  0.00  1.00  0.00  0.00  0.00  0.14  0.00
  YS02001770YS02001767    1.00   0.00  0.00  0.00  1.00  0.00  0.00  0.00  0.00  0.00
  YS02001774YS02001770    1.00   0.00  0.04  0.00  0.96  0.00  0.00  0.00  0.03  0.00
  YS02001779YS02001774    1.00   0.00  0.00  0.00  1.00  0.00  0.00  0.00  0.19  0.00
  YS02001649YS02001757    1.00   0.00  0.00  0.00  1.00  0.00  0.00  0.00  0.16  0.00
  YS02001767YS02001765    1.00   0.00  0.00  0.00  1.00  0.00  0.00  0.00  0.00  0.00
  YS02006561YS02001783    1.00   0.06  0.00  0.00  0.39  0.55  0.00  0.00  0.47  0.00
  YS02001783YS02001784    1.00   0.00  0.06  0.00  0.94  0.00  0.00  0.00  0.00  0.00
  YS02001784YS02001785    1.00   0.00  0.00  0.00  1.00  0.00  0.00  0.00  0.18  0.00
  YS02001788YS02001790    1.00   0.00  0.00  0.00  0.44  0.56  0.00  0.00  0.36  0.00
  YS02001790YS02001791    1.00   0.00  0.00  0.00  0.39  0.61  0.00  0.00  0.46  0.00
  YS02001791YS02001793    1.00   0.00  0.00  0.00  0.42  0.58  0.00  0.00  0.02  0.00
  YS02001910YS02001907    1.00   0.00  0.00  0.00  0.99  0.00  0.00  0.01  0.12  0.00
  YS02001786YS02001788    1.00   0.00  0.00  0.00  0.43  0.57  0.00  0.00  0.00  0.00
  YS02001915YS02001910    1.00   0.00  0.00  0.00  0.99  0.01  0.00  0.00  0.16  0.00
  YS02001918YS02001915    1.00   0.00  0.00  0.00  0.99  0.00  0.00  0.00  0.54  0.00
  YS02001923YS02001920    1.00   0.00  0.00  0.00  1.00  0.00  0.00  0.00  0.82  0.00
  YS02001926YS02001923    1.00   0.00  0.02  0.00  0.17  0.00  0.81  0.00  0.00  0.00
  YS02001929YS02001926    1.00   0.00  0.04  0.00  0.96  0.00  0.00  0.00  0.74  0.00
  YS02001920YS02001918    1.00   0.00  0.00  0.00  1.00  0.00  0.00  0.00  0.00  0.00
  YS02001629YS02163301    1.00   0.04  0.00  0.00  0.95  0.00  0.00  0.00  0.00  0.00
  YS02001619YS02001622    1.00   0.04  0.00  0.00  0.96  0.00  0.00  0.00  0.00  0.00
  YS02001622YS02001625    1.00   0.04  0.00  0.00  0.96  0.00  0.00  0.00  0.05  0.00
  YS02001625YS02001629    1.00   0.04  0.02  0.00  0.92  0.00  0.02  0.00  0.00  0.00
  YS02163301YS02001633    1.00   0.00  0.04  0.00  0.96  0.00  0.00  0.00  0.00  0.00
  YS02163601YS02164001    1.00   0.00  0.03  0.00  0.97  0.00  0.00  0.00  0.00  0.00
  YS02164001YS02001641    1.00   0.00  0.02  0.00  0.97  0.00  0.00  0.00  0.06  0.00
  YS02001641YS02001644    1.00   0.00  0.00  0.00  1.00  0.00  0.00  0.00  0.00  0.00
  YS02001647YS02001649    1.00   0.00  0.05  0.00  0.95  0.00  0.00  0.00  0.01  0.00
  YS02006553YS02006556    1.00   0.00  0.00  0.00  1.00  0.00  0.00  0.00  0.03  0.00
  YS02006556YS02006558    1.00   0.00  0.00  0.00  1.00  0.00  0.00  0.00  0.00  0.00
  YSB6556YSB1171          1.00   0.01  0.02  0.00  0.96  0.00  0.00  0.00  0.00  0.00
  YS02001907YS02006553    1.00   0.00  0.01  0.00  0.99  0.00  0.00  0.00  0.00  0.00
  YS02006558YS02006561    1.00   0.06  0.00  0.00  0.17  0.77  0.00  0.00  0.46  0.00
  YS02001633YS02163601    1.00   0.00  0.00  0.00  1.00  0.00  0.00  0.00  0.15  0.00
  YS02001644YS02001647    1.00   0.00  0.05  0.00  0.95  0.00  0.00  0.00  0.00  0.00
  YS02001745YS02001748    1.00   0.00  0.00  0.00  0.90  0.01  0.00  0.10  0.04  0.00
  YS02001748YS02001751    1.00   0.00  0.00  0.00  0.97  0.03  0.00  0.00  0.15  0.00
  YS02001751YS02001754    1.00   0.00  0.00  0.00  0.94  0.00  0.00  0.06  0.02  0.00
  YS02001754YS02001757    1.00   0.00  0.00  0.00  1.00  0.00  0.00  0.00  0.18  0.00
  YS02001882YS02001884    1.00   0.04  0.00  0.00  0.95  0.00  0.00  0.00  0.00  0.00
  YS02001884YS02001887    1.00   0.02  0.01  0.00  0.97  0.00  0.00  0.00  0.00  0.00
  YS02001890YS02001895    1.00   0.00  0.05  0.00  0.95  0.00  0.00  0.00  0.00  0.00
  YS02001895YS02001898    1.00   0.05  0.00  0.00  0.94  0.00  0.01  0.00  0.00  0.00
  YS02001898YS02001901    1.00   0.05  0.00  0.00  0.95  0.00  0.00  0.00  0.01  0.00
  YS02001901YS02001904    1.00   0.05  0.00  0.00  0.95  0.00  0.00  0.00  0.00  0.00
  YS02001904YS02001907    1.00   0.00  0.05  0.00  0.95  0.00  0.00  0.00  0.00  0.00
  YS02001887YS02001890    1.00   0.00  0.00  0.00  0.99  0.00  0.01  0.00  0.00  0.00
  YS02001652YS02001649    1.00   0.00  0.00  0.00  1.00  0.00  0.00  0.00  0.17  0.00
  YS02001655YS02001652    1.00   0.00  0.00  0.00  0.94  0.00  0.00  0.06  0.02  0.00
  YS02001658YS02001655    1.00   0.00  0.04  0.00  0.93  0.03  0.00  0.00  0.10  0.00
  YS02001661YS02001658    1.00   0.04  0.00  0.00  0.90  0.06  0.00  0.00  0.11  0.00
  YS02001664YS02001661    1.00   0.04  0.00  0.00  0.91  0.05  0.00  0.00  0.20  0.00
  YSB1154YSB6556          1.00   0.04  0.00  0.00  0.96  0.00  0.00  0.00  0.02  0.00
  YSB1174YSB1171          1.00   0.02  0.01  0.00  0.97  0.00  0.00  0.00  0.00  0.00
  YSB1171HS02004479       1.00   0.01  0.00  0.00  0.98  0.00  0.00  0.00  0.10  0.00
  HS02004881HS02006253    1.00   0.02  0.00  0.00  0.59  0.02  0.00  0.37  0.37  0.00
  YS02001793JiankangQianchi    1.00   0.00  0.00  0.00  0.67  0.33  0.00  0.00  0.41  0.00
  YS02001757CaochengTiaoxuchi    1.00   0.00  0.07  0.00  0.92  0.00  0.00  0.00  0.00  0.00
  WSF200WS02003060        1.00   0.00  0.01  0.00  0.99  0.00  0.00  0.00  0.47  0.00
  1                       1.00   0.00  0.00  0.00  0.00  1.00  0.00  0.00  0.48  0.00
  
  
  *************************
  Conduit Surcharge Summary
  *************************
  
  ----------------------------------------------------------------------------
                                                           Hours        Hours 
                         --------- Hours Full --------   Above Full   Capacity
  Conduit                Both Ends  Upstream  Dnstream   Normal Flow   Limited
  ----------------------------------------------------------------------------
  WS02006229WS02006228        3.03      3.13      3.03      3.87         3.03
  WS02006256WS02006235        5.56      5.57      6.77      4.12         0.01
  WS02006253WS02006251        0.82      0.82      0.86      0.01         0.02
  WS02006252WS02006251        0.63      0.63      1.30      0.90         0.01
  WS02006251WS02006249        0.83      0.83      0.91      0.26         0.11
  WS02006249WS02006248        0.86      0.86      0.91      1.94         0.01
  WS02006248WS02006247        0.91      0.91      1.05      0.01         0.01
  WS02006247WS02006245        1.05      1.08      1.05      2.55         0.89
  WS02006245WS02006243        1.09      1.09      1.23      0.09         0.03
  WS02006243WS02006242        1.30      1.30      1.78      0.01         0.01
  WS02006242WS02006240        1.68      1.68      1.92      0.98         0.01
  WS02006240WS02006239        1.75      1.75      1.90      0.31         0.20
  WS02006239WS02006238        2.08      2.08      2.21      0.38         0.23
  WS02006238WS02006235        2.20      2.20      2.33      0.01         0.01
  WS02006235WS02006234        1.97      1.97      2.16      5.26         0.01
  WS02006234WS02006232        2.06      2.06      2.59      0.35         0.36
[...]
  YS02001770YS02001767        5.69      5.69      5.69      0.55         0.56
  YS02001774YS02001770        5.68      5.68      5.74      0.01         0.01
  YS02001779YS02001774        5.56      5.56      5.74      0.01         0.01
  YS02001649YS02001757        5.75      5.75      5.86      0.01         0.01
  YS02001767YS02001765        5.69      5.69      5.72      0.01         0.01
  YS02006561YS02001783        0.99      0.99      1.39      0.01         0.01
  YS02001783YS02001784        1.37      1.39      1.37      1.47         1.28
  YS02001784YS02001785        1.31      1.37      1.31      2.51         1.31
  YS02001788YS02001790        1.26      1.26      2.10      0.01         0.01
  YS02001790YS02001791        2.10      2.10      2.18      1.10         1.09
  YS02001791YS02001793        2.18      2.18      2.49      0.01         0.01
  YS02001910YS02001907        1.29      1.29      1.91      0.01         0.01
  YS02001786YS02001788        1.26      1.31      1.26      2.08         1.26
  YS02001915YS02001910        1.12      1.12      1.29      0.01         0.01
  YS02001918YS02001915        0.94      0.94      1.12      0.01         0.01
  YS02001923YS02001920        0.78      0.78      0.97      0.01         0.01
  YS02001920YS02001918        0.94      0.94      0.97      0.01         0.01
  YS02001629YS02163301        5.67      5.67      5.68      0.01         0.01
  YS02001619YS02001622        5.37      5.37      5.41      0.01         0.01
  YS02001622YS02001625        5.41      5.41      5.64      0.01         0.01
  YS02001625YS02001629        5.38      5.38      5.64      0.01         0.01
  YS02163301YS02001633        5.68      5.68      5.72      0.01         0.01
  YS02163601YS02164001        5.72      5.72      5.75      0.01         0.01
  YS02164001YS02001641        5.72      5.72      5.73      0.01         0.03
  YS02001641YS02001644        5.73      5.73      5.73      1.72         1.86
  YS02001647YS02001649        5.62      5.62      5.75      0.01         0.01
  YS02006553YS02006556        1.51      1.51      1.98      0.01         0.01
  YS02006556YS02006558        1.68      1.68      2.05      0.01         0.01
  YSB6556YSB1171              0.01      0.01      0.07      0.01         0.01
  YS02001907YS02006553        2.53      2.53      2.75      0.01         0.01
  YS02006558YS02006561        1.12      1.47      1.12      2.35         1.12
  YS02001633YS02163601        5.71      5.71      5.75      0.01         0.01
  YS02001644YS02001647        5.62      5.62      5.73      0.01         0.01
  YS02001745YS02001748        0.01      0.01      5.22      0.01         0.01
  YS02001748YS02001751        5.27      5.27      5.38      0.01         0.01
  YS02001751YS02001754        5.38      5.38      5.58      0.01         0.01
  YS02001754YS02001757        5.61      5.61      5.86      0.01         0.01
  YS02001882YS02001884        1.13      1.13      1.15      0.01         0.01
  YS02001884YS02001887        1.20      1.20      1.22      0.01         0.01
  YS02001890YS02001895        1.10      1.10      1.30      0.01         0.01
  YS02001895YS02001898        1.09      1.09      1.10      0.01         0.01
  YS02001898YS02001901        1.11      1.11      1.19      0.01         0.01
  YS02001901YS02001904        1.17      1.17      1.19      0.01         0.01
  YS02001904YS02001907        1.17      1.17      2.01      0.01         0.01
  YS02001887YS02001890        1.24      1.24      1.27      0.16         0.01
  YS02001652YS02001649        5.63      5.63      5.75      0.01         0.01
  YS02001655YS02001652        5.40      5.40      5.61      0.01         0.01
  YS02001658YS02001655        5.25      5.25      5.40      0.01         0.01
  YS02001661YS02001658        0.09      0.09      5.25      0.01         0.01
  YS02001664YS02001661        0.01      0.01      1.22      0.01         0.01
  HS02004881HS02006253        0.01      0.01      0.38      0.01         0.01
  YS02001793JiankangQianchi        2.42      2.42      4.30      0.01         0.01
  YS02001757CaochengTiaoxuchi        5.11      5.11      5.86      0.01         0.01
  
  
  ***************
  Pumping Summary
  ***************
  
  ---------------------------------------------------------------------------------------------------------
                                                  Min       Avg       Max     Total     Power    % Time Off
                        Percent   Number of      Flow      Flow      Flow    Volume     Usage    Pump Curve
  Pump                 Utilized   Start-Ups       LPS       LPS       LPS  10^6 ltr     Kw-hr    Low   High
  ---------------------------------------------------------------------------------------------------------
  CC-Pump-1               44.67           4      0.00    142.91    200.00     1.680      1.45    0.0    0.0
  CC-Pump-2               25.53           4      0.00     96.61    199.98     0.720      0.76    0.0    0.0
  JK-Pump-1               57.44           5      0.00    233.06    300.00     3.463     52.19    0.0    0.0
  JK-Pump-2               55.32           5      0.00    444.91    683.00     6.346     86.33    0.0   95.7
  XR-Pump-1              100.00           1      0.00     95.00     95.00     2.679     28.01    0.0    0.0
  XR-Pump-2               97.87           2      0.00     93.44     95.00     2.508     24.35    0.0    0.0
  XR-Pump-3               95.75           3      0.00     92.24     95.00     2.394     21.85    0.0    0.0
  XR-Pump-4               95.75           3      0.00     92.24     95.00     2.394     21.85    0.0    0.0
  
  
  ***************************
  Link Pollutant Load Summary
  ***************************
  
  ------------------------------------------------------------------------------------------
                                 COD            SS            TN            TP         NH4-N
  Link                            kg            kg            kg            kg            kg
  ------------------------------------------------------------------------------------------
  WS02003066WSF200           772.891      1449.363        20.575         1.823        10.880
  WS02006287WS02006284       319.471       608.089        10.315         1.015         5.679
  WS02006284WS02006280       319.947       608.867        10.361         1.021         5.708
  WS02006280WS02006229       319.897       608.762        10.359         1.021         5.706
  WS02006229WS02006228       772.835      1449.248        20.135         1.758        10.588
  WS02006256WS02006235       204.538       379.080         4.547         0.357         2.305
  WS02006253WS02006251        63.854       125.120         1.427         0.108         0.711
  WS02006252WS02006251       210.626       385.381         4.385         0.317         2.157
  WS02006251WS02006249       265.296       493.897         5.622         0.412         2.775
  WS02006249WS02006248       251.344       466.614         5.336         0.391         2.635
  WS02006248WS02006247       251.438       466.782         5.341         0.392         2.638
  WS02006247WS02006245       251.393       466.711         5.337         0.392         2.636
  WS02006245WS02006243       251.036       466.150         5.322         0.390         2.628
  WS02006243WS02006242       251.770       467.552         5.337         0.391         2.634
  WS02006242WS02006240       252.391       468.780         5.348         0.392         2.639
  WS02006240WS02006239       254.258       472.298         5.388         0.395         2.659
  WS02006239WS02006238       256.773       476.708         5.460         0.401         2.698
  WS02006238WS02006235       257.947       478.615         5.498         0.405         2.720
  WS02006235WS02006234       455.081       844.200         9.857         0.746         4.927
  WS02006234WS02006232       454.959       843.961         9.858         0.746         4.928
  WS02006232WS02006231       454.584       843.289         9.847         0.745         4.922
  WS02006231WS02006230       454.487       843.093         9.847         0.745         4.922
  WS02006230WS02006229       453.812       841.954         9.820         0.742         4.907
  WS02006228WS02006109       771.749      1447.340        20.089         1.753        10.561
  WS02006116WS02004401       785.120      1471.494        20.853         1.845        11.020
  WS02006115WS02006116       786.477      1473.908        20.894         1.849        11.043
  WS02006113WS02006111       777.613      1456.288        20.787         1.842        11.002
  WS02006112WS02006115       787.541      1475.762        20.938         1.853        11.068
  WS02006111WS02006112       777.164      1455.547        20.767         1.840        10.991
  WS02006110WS02006113       778.066      1457.108        20.807         1.845        11.014
  WS02006109WS02006110       779.168      1459.034        20.865         1.851        11.048
  WS02004411WS02004412       776.014      1454.893        20.681         1.834        10.939
  WS02004401WS02004402       783.846      1469.241        20.808         1.840        10.995
  WS02004413WS02003067       773.604      1450.689        20.589         1.824        10.887
  WS02004412WS02004413       774.838      1452.802        20.646         1.831        10.920
  WS02004410WS02004411       776.985      1456.644        20.706         1.836        10.952
  WS02004409WS02004410       777.919      1458.309        20.734         1.839        10.967
  WS02004407WS02004409       778.718      1459.764        20.751         1.840        10.976
  WS02004406WS02004407       778.992      1460.305        20.750         1.839        10.974
  WS02004405WS02004406       780.570      1463.095        20.812         1.846        11.009
  WS02004404WS02004405       781.852      1465.486        20.817         1.844        11.008
  WS02004403WS02004404       781.481      1465.034        20.733         1.833        10.953
  WS02004402WS02004403       782.557      1466.938        20.770         1.837        10.974
  WS02004139WS02001211      1388.624      2305.423       112.767        13.765        69.511
  WS02004138WS02004139      1394.714      2315.604       113.234        13.822        69.798
  WS02003067WS02003066       773.061      1449.665        20.581         1.824        10.883
  WS02001213WS02003059      1422.286      2358.346       116.248        14.205        71.698
  WS02001212WS02001213      1430.933      2372.690       116.944        14.290        72.128
  WS02001211WS02001212      1433.054      2376.149       117.129        14.312        72.242
  WS02003072WS02003073      2295.122      3966.462       146.768        17.277        88.808
  WS02003069WS02003072      2300.123      3974.609       147.189        17.328        89.069
  WS02003060WS02003069      2302.849      3979.297       147.351        17.347        89.167
  WS02003059WS02003060      1419.395      2353.447       116.044        14.180        71.574
  HS02004901HS02004770        13.094        25.473         0.248         0.019         0.116
  HS02004876HS02004881        45.512        90.341         0.999         0.073         0.491
  HS02004870HS02004876        34.381        68.101         0.798         0.060         0.395
  HS02004842HS02004848         6.456        12.343         0.134         0.009         0.062
  HS02004837HS02004842        11.055        19.635         0.603         0.068         0.356
  HS02004830HS02004837        70.296       122.723         4.643         0.552         2.827
  HS02004824HS02004830        71.067       123.978         4.715         0.561         2.871
  HS02004817HS02004824        97.161       176.402         5.254         0.596         3.135
  HS02004770HS02004777        49.661        97.710         1.021         0.069         0.472
  HS02004799HS02004480       162.318       310.822         4.263         0.379         2.209
  HS02004792HS02004799       147.269       280.112         4.028         0.367         2.105
  HS02004788HS02004792        82.814       157.680         2.666         0.255         1.440
  HS02004785HS02004788        51.119       100.043         1.172         0.089         0.567
  HS02004777HS02004785        50.444        98.939         1.112         0.081         0.530
  HS02004480HS02004478       204.812       395.162         4.972         0.429         2.544
  HS02004479HS02004480        46.129        90.115         1.037         0.091         0.538
  HS02004862HS02004870        25.798        50.337         0.628         0.050         0.314
  HS02004848HS02004852        10.251        19.884         0.210         0.014         0.097
  HS02004856HS02004862        17.524        34.748         0.350         0.023         0.164
  HS02004852HS02004856        10.255        19.889         0.210         0.014         0.097
  HS02004802HS02004478       115.336       214.040         5.398         0.592         3.169
  HS02004478WS02006287       319.679       608.450        10.332         1.017         5.689
  HS02004817HS02004807        95.854       174.304         5.130         0.581         3.057
  HS02004807HS02004802       115.592       214.441         5.430         0.596         3.189
  YS02001759YS02001757       334.439       613.010         6.702         0.466         3.276
  YS02001762YS02001759       192.458       355.809         4.008         0.283         1.978
  YS02001765YS02001762       192.987       357.363         4.037         0.285         1.995
  YS02001770YS02001767       193.906       360.983         3.865         0.258         1.876
  YS02001774YS02001770       281.068       547.047         5.380         0.359         2.599
  YS02001779YS02001774       280.336       545.564         5.470         0.373         2.662
  YS02001649YS02001757       373.169       677.007         7.546         0.518         3.639
  YS02001767YS02001765       194.068       359.942         4.070         0.288         2.012
  YS02006561YS02001783      1017.910      1886.488        21.356         1.595        10.629
  YS02001783YS02001784      1017.773      1886.269        21.351         1.594        10.627
  YS02001784YS02001785      1025.102      1898.010        22.064         1.684        11.073
  YS02001788YS02001790      1025.677      1898.941        22.136         1.693        11.119
  YS02001790YS02001791      1026.708      1900.607        22.236         1.705        11.181
  YS02001791YS02001793      1026.613      1900.451        22.232         1.705        11.178
  YS02001910YS02001907       391.336       721.788         9.403         0.720         4.819
  YS02001786YS02001788      1025.286      1898.308        22.092         1.687        11.091
  YS02001915YS02001910       391.381       721.860         9.354         0.713         4.787
  YS02001918YS02001915       189.280       334.221         5.207         0.473         2.803
  YS02001923YS02001920       166.711       297.013         3.217         0.228         1.566
  YS02001926YS02001923       164.775       293.724         3.113         0.216         1.504
  YS02001929YS02001926       164.175       292.711         3.065         0.210         1.474
  YS02001920YS02001918       187.102       329.812         5.139         0.467         2.766
  YS02001629YS02163301        96.011       169.762         2.027         0.131         0.945
  YS02001619YS02001622       175.878       321.141         3.602         0.236         1.684
  YS02001622YS02001625       174.679       319.234         3.573         0.234         1.671
  YS02001625YS02001629        97.108       171.560         2.051         0.132         0.956
  YS02163301YS02001633        96.332       170.551         2.028         0.132         0.947
  YS02163601YS02164001       405.683       733.081         7.898         0.562         3.783
  YS02164001YS02001641       405.138       732.154         7.877         0.560         3.772
  YS02001641YS02001644       405.190       732.163         7.873         0.560         3.769
  YS02001647YS02001649       479.716       881.698         9.585         0.664         4.589
  YS02006553YS02006556       684.030      1256.994        14.731         1.129         7.417
  YS02006556YS02006558       683.930      1256.794        14.701         1.125         7.397
  YSB6556YSB1171              26.524        51.970         0.537         0.045         0.272
  YS02001907YS02006553       684.105      1257.161        14.738         1.130         7.421
  YS02006558YS02006561      1017.895      1886.454        21.355         1.594        10.629
  YS02001633YS02163601       406.411       734.216         7.879         0.558         3.767
  YS02001644YS02001647       485.854       892.865         9.678         0.671         4.631
  YS02001745YS02001748       248.796       465.449         5.393         0.368         2.668
  YS02001748YS02001751       247.530       462.914         5.479         0.382         2.730
  YS02001751YS02001754       246.550       461.302         5.460         0.381         2.721
  YS02001754YS02001757       247.283       462.389         5.624         0.404         2.828
  YS02001882YS02001884         2.874         4.952         0.058         0.005         0.029
  YS02001884YS02001887         6.774        11.973         0.134         0.010         0.067
  YS02001890YS02001895       450.966       846.441         8.302         0.624         4.049
  YS02001895YS02001898       450.819       846.256         8.296         0.624         4.046
  YS02001898YS02001901       450.622       845.919         8.291         0.623         4.044
  YS02001901YS02001904       450.474       845.714         8.298         0.625         4.049
  YS02001904YS02001907       450.687       846.039         8.351         0.632         4.083
  YS02001887YS02001890       468.270       880.760         8.646         0.653         4.223
  YS02001652YS02001649       205.811       382.119         4.147         0.298         1.944
  YS02001655YS02001652       206.572       383.338         4.166         0.300         1.953
  YS02001658YS02001655       206.299       382.894         4.085         0.289         1.900
  YS02001661YS02001658       209.820       389.116         4.158         0.294         1.933
  YS02001664YS02001661       220.403       406.223         4.401         0.310         2.044
  YSB1154YSB6556              26.086        51.272         0.486         0.038         0.239
  YSB1174YSB1171              18.023        35.564         0.362         0.029         0.181
  YSB1171HS02004479           46.095        90.061         1.040         0.092         0.541
  HS02004881HS02006253        51.446       102.459         1.106         0.080         0.542
  YS02001793JiankangQianchi      1026.800      1900.752        22.241         1.706        11.184
  YS02001757CaochengTiaoxuchi       558.917      1015.304        11.711         0.838         5.754
  WSF200WS02003060           772.589      1448.771        20.576         1.824        10.882
  1                         2300.750      3974.507       147.546        17.377        89.305
  CC-Pump-1                  147.404       269.714         3.062         0.221         1.505
  CC-Pump-2                   62.967       115.242         1.306         0.094         0.641
  JK-Pump-1                  251.270       470.293         5.448         0.422         2.747
  JK-Pump-2                  541.614      1020.991        11.104         0.826         5.506
  XR-Pump-1                  390.351       645.628        32.288         3.952        19.935
  XR-Pump-2                  351.333       583.201        28.544         3.485        17.596
  XR-Pump-3                  328.287       546.319        26.346         3.210        16.223
  XR-Pump-4                  328.287       546.319        26.346         3.210        16.223
  

  Analysis begun on:  Thu Jul 15 23:34:52 2021
  Analysis ended on:  Thu Jul 15 23:34:54 2021
  Total elapsed time: 00:00:02