
  EPA STORM WATER MANAGEMENT MODEL - VERSION 5.1 (Build 5.3.0.dev0)
  --------------------------------------------------------------

  WARNING 04: minimum elevation drop used for Conduit WS02004404WS02004405
  WARNING 03: negative offset ignored for Link YS02001904YS02001907
  
  *********************************************************
  NOTE: The summary statistics displayed in this report are
  based on results found at every computational time step,  
  not just on results from each reporting time step.
  *********************************************************
  
  ****************
  Analysis Options
  ****************
  Flow Units ............... LPS
  Process Models:
    Rainfall/Runoff ........ YES
    RDII ................... NO
    Snowmelt ............... NO
    Groundwater ............ NO
    Flow Routing ........... YES
    Ponding Allowed ........ NO
    Water Quality .......... YES
  Infiltration Method ...... HORTON
  Flow Routing Method ...... DYNWAVE
  Surcharge Method ......... EXTRAN
  Starting Date ............ 08/28/2015 08:00:00
  Ending Date .............. 08/28/2015 15:50:00
  Antecedent Dry Days ...... 8.0
  Report Time Step ......... 00:01:00
  Wet Time Step ............ 00:01:00
  Dry Time Step ............ 00:01:00
  Routing Time Step ........ 5.00 sec
  Variable Time Step ....... YES
  Maximum Trials ........... 8
  Number of Threads ........ 4
  Head Tolerance ........... 0.001500 m
  
  
  **************************        Volume         Depth
  Runoff Quantity Continuity     hectare-m            mm
  **************************     ---------       -------
  Total Precipitation ......         6.144        13.452
  Evaporation Loss .........         0.000         0.000
  Infiltration Loss ........         1.064         2.328
  Surface Runoff ...........         4.147         9.079
  Final Storage ............         0.935         2.047
  Continuity Error (%) .....        -0.020
  
  
  **************************           COD            SS            TN            TP         NH4-N
  Runoff Quality Continuity             kg            kg            kg            kg            kg
  **************************    ----------    ----------    ----------    ----------    ----------
  Initial Buildup ..........     41378.656     70582.865      1804.177       168.684      1032.807
  Surface Buildup ..........        21.799        40.924         2.400         0.218         1.395
  Wet Deposition ...........         0.000         0.000         0.000         0.000         0.000
  Sweeping Removal .........         0.000         0.000         0.000         0.000         0.000
  Infiltration Loss ........        97.311       184.943         1.849         0.130         0.881
  BMP Removal ..............         0.000         0.000         0.000         0.000         0.000
  Surface Runoff ...........      3769.819      7064.251        72.781         4.964        34.599
  Remaining Buildup ........     37531.916     63371.884      1731.919       163.806       998.709
  Continuity Error (%) .....         0.003         0.004         0.002         0.001         0.001
  
  
  **************************        Volume        Volume
  Flow Routing Continuity        hectare-m      10^6 ltr
  **************************     ---------     ---------
  Dry Weather Inflow .......         0.616         6.165
  Wet Weather Inflow .......         4.145        41.452
  Groundwater Inflow .......         0.000         0.000
  RDII Inflow ..............         0.000         0.000
  External Inflow ..........         0.102         1.024
  External Outflow .........         1.910        19.105
  Flooding Loss ............         2.498        24.978
  Evaporation Loss .........         0.000         0.000
  Exfiltration Loss ........         0.000         0.000
  Initial Stored Volume ....         0.076         0.761
  Final Stored Volume ......         0.644         6.440
  Continuity Error (%) .....        -2.271
  
  
  **************************           COD            SS            TN            TP         NH4-N
  Quality Routing Continuity            kg            kg            kg            kg            kg
  **************************    ----------    ----------    ----------    ----------    ----------
  Dry Weather Inflow .......      1541.201      2465.922       147.955        18.494        92.472
  Wet Weather Inflow .......      3769.126      7063.103        72.765         4.964        34.592
  Groundwater Inflow .......         0.000         0.000         0.000         0.000         0.000
  RDII Inflow ..............         0.000         0.000         0.000         0.000         0.000
  External Inflow ..........       183.418       293.469        17.608         2.201        11.005
  External Outflow .........      2318.595      4005.941       147.180        17.300        88.999
  Flooding Loss ............      2520.075      4693.776        64.262         5.571        33.706
  Exfiltration Loss ........         0.000         0.000         0.000         0.000         0.000
  Mass Reacted .............         0.000         0.000         0.000         0.000         0.000
  Initial Stored Mass ......         0.000         0.000         0.000         0.000         0.000
  Final Stored Mass ........       547.386       940.860        24.302         2.592        14.066
  Continuity Error (%) .....         1.960         1.852         1.085         0.761         0.940
  
  
  *************************
  Highest Continuity Errors
  *************************
  Node HS02004842 (13.41%)
  Node JK-storage (-10.41%)
  Node YS02001884 (9.86%)
  Node HS02004817 (2.53%)
  Node YSB1171 (2.46%)
  
  
  ***************************
  Time-Step Critical Elements
  ***************************
  Link WS02006252WS02006251 (54.13%)
  Link WS02006280WS02006229 (12.41%)
  Link WS02006238WS02006235 (7.51%)
  Link YS02001793JiankangQianchi (4.86%)
  Link YS02006556YS02006558 (4.20%)
  
  
  ********************************
  Highest Flow Instability Indexes
  ********************************
  Link WS02006113WS02006111 (48)
  Link YS02001619YS02001622 (26)
  Link YS02163601YS02164001 (25)
  Link YS02001629YS02163301 (25)
  Link WS02006111WS02006112 (25)
  
  
  *************************
  Routing Time Step Summary
  *************************
  Minimum Time Step           :     0.06 sec
  Average Time Step           :     1.33 sec
  Maximum Time Step           :     5.00 sec
  Percent in Steady State     :     0.00
  Average Iterations per Step :     3.92
  Percent Not Converging      :    16.05
  
  
  ***************************
  Subcatchment Runoff Summary
  ***************************
  
  ------------------------------------------------------------------------------------------------------------------------------
                            Total      Total      Total      Total     Imperv       Perv      Total       Total     Peak  Runoff
                           Precip      Runon       Evap      Infil     Runoff     Runoff     Runoff      Runoff   Runoff   Coeff
  Subcatchment                 mm         mm         mm         mm         mm         mm         mm    10^6 ltr      LPS
  ------------------------------------------------------------------------------------------------------------------------------
  sub0                      13.45       0.00       0.00       0.63      12.47       0.31      12.77        0.01     3.75   0.950
  sub1                      13.45       0.00       0.00       1.12      11.88       0.36      12.24        0.08    25.66   0.910
  sub2                      13.45       0.00       0.00       4.44       8.39       0.53       8.92        0.08    25.29   0.663
  sub3                      13.45       0.00       0.00       4.56       8.35       0.42       8.77        0.20    55.75   0.652
  sub4                      13.45       0.00       0.00       1.22      11.71       0.26      11.97        0.25    65.52   0.890
  sub5                      13.45       0.00       0.00       0.68      12.41       0.26      12.67        0.14    44.76   0.942
  sub7                      13.45       0.00       0.00       0.86      12.18       0.35      12.53        0.04    14.26   0.931
  sub8                      13.45       0.00       0.00       0.87      12.17       0.34      12.50        0.08    26.26   0.930
  sub9                      13.45       0.00       0.00       0.88      12.17       0.33      12.50        0.06    19.64   0.929
  sub10                     13.45       0.00       0.00       0.78      12.29       0.29      12.58        0.14    44.00   0.935
  sub11                     13.45       0.00       0.00       0.77      12.30       0.31      12.61        0.15    48.45   0.938
  sub12                     13.45       0.00       0.00       1.25      11.66       0.50      12.16        0.11    38.10   0.904
  sub14                     13.45       0.00       0.00       0.88      12.16       0.33      12.49        0.12    38.67   0.929
  sub15                     13.45       0.00       0.00       3.37       9.35       0.66      10.01        0.17    57.01   0.744
  sub16                     13.45       0.00       0.00       3.56       8.97       0.88       9.85        0.10    37.63   0.732
  sub17                     13.45       0.00       0.00       3.47       9.10       0.84       9.94        0.09    30.67   0.739
  sub22                     13.45       0.00       0.00       4.98       7.63       0.81       8.43        0.53   184.54   0.627
  sub23                     13.45       0.00       0.00       4.17       8.43       0.81       9.24        0.44   154.22   0.687
  sub60                     13.45       0.00       0.00       1.53       9.85       0.09       9.93        3.01   438.14   0.738
  sub61                     13.45       0.00       0.00       2.16       9.95       0.12      10.07        3.11   536.45   0.749
  sub62                     13.45       0.00       0.00       0.98      10.84       0.10      10.94        3.36   552.35   0.813
  sub63                     13.45       0.00       0.00       3.77       8.69       0.14       8.83        2.67   492.63   0.656
  sub64                     13.45       0.00       0.00       1.93       9.45       0.09       9.54        2.90   416.72   0.709
  sub65                     13.45       0.00       0.00       1.67       9.61       0.08       9.70        2.98   423.09   0.721
  sub66                     13.45       0.00       0.00       3.81       8.10       0.09       8.18        2.51   380.66   0.608
  sub67                     13.45       0.00       0.00       0.95      11.38       0.13      11.51        3.55   679.52   0.856
  sub68                     13.45       0.00       0.00       1.75      10.45       0.13      10.59        3.26   586.26   0.787
  sub69                     13.45       0.00       0.00       1.83      10.79       0.19      10.98        2.57   544.72   0.816
  sub70                     13.45      11.20       0.00       7.51      14.65       0.88      15.52        3.55   494.81   0.630
  sub71                     13.45       0.00       0.00       0.99      10.58       0.09      10.67        2.52   389.24   0.793
  sub72                     13.45       0.00       0.00       0.89       8.56       0.05       8.61        1.75   189.18   0.640
  1                         13.45      15.11       0.00       1.37      16.56       4.63      21.19        4.98   484.42   0.742
  2                         13.45       0.00       0.00       3.02       3.21       1.96       5.17        2.07   340.45   0.384
  
  
  ****************************
  Subcatchment Washoff Summary
  ****************************
  
  ------------------------------------------------------------------------------------------
                                 COD            SS            TN            TP         NH4-N
  Subcatchment                    kg            kg            kg            kg            kg
  ------------------------------------------------------------------------------------------
  sub0                         2.670         5.197         0.046         0.004         0.022
  sub1                        11.241        22.423         0.210         0.015         0.101
  sub2                         6.894        13.384         0.145         0.010         0.067
  sub3                        16.924        32.573         0.350         0.024         0.161
  sub4                        25.772        51.904         0.510         0.031         0.245
  sub5                        25.778        50.682         0.460         0.035         0.223
  sub7                         5.751        11.638         0.108         0.007         0.052
  sub8                         8.581        17.755         0.171         0.010         0.082
  sub9                         7.353        15.005         0.142         0.009         0.068
  sub10                       21.202        42.223         0.389         0.028         0.188
  sub11                       20.657        41.614         0.386         0.026         0.187
  sub12                       17.724        35.094         0.321         0.024         0.155
  sub14                       15.732        31.800         0.298         0.020         0.144
  sub15                       20.231        39.321         0.389         0.028         0.182
  sub16                       13.129        25.518         0.249         0.019         0.117
  sub17                       12.049        23.208         0.222         0.017         0.105
  sub22                       62.582       119.432         1.186         0.090         0.554
  sub23                       36.683        72.439         0.776         0.051         0.357
  sub60                      243.520       456.962         4.842         0.298         2.321
  sub61                      302.151       564.434         5.627         0.386         2.710
  sub62                      313.722       596.076         6.119         0.388         2.938
  sub63                      223.275       410.850         4.468         0.314         2.075
  sub64                      305.877       553.773         5.626         0.410         2.687
  sub65                      313.037       569.066         5.795         0.415         2.772
  sub66                      176.068       321.340         3.608         0.236         1.687
  sub67                      466.222       877.505         8.365         0.616         4.045
  sub68                      332.037       626.413         6.347         0.429         3.034
  sub69                      298.258       568.561         5.590         0.393         2.674
  sub70                      502.897       962.303        10.037         0.699         4.710
  sub71                      206.745       396.330         4.242         0.246         2.030
  sub72                      164.385       293.107         3.069         0.210         1.476
  1                          349.075       671.606         7.102         0.495         3.297
  2                           42.749        75.577         1.214         0.073         0.518
  ------------------------------------------------------------------------------------------
  System                    4570.974      8595.115        88.408         6.057        41.983
  
  
  ******************
  Node Depth Summary
  ******************
  
  ---------------------------------------------------------------------------------
                                 Average  Maximum  Maximum  Time of Max    Reported
                                   Depth    Depth      HGL   Occurrence   Max Depth
  Node                 Type       Meters   Meters   Meters  days hr:min      Meters
  ---------------------------------------------------------------------------------
  WS02001211           JUNCTION     0.77     0.84     5.68     0  03:08        0.84
  WS02001212           JUNCTION     0.48     0.57     5.64     0  03:08        0.57
  WS02001213           JUNCTION     0.71     0.85     5.61     0  03:08        0.85
  WS02003069           JUNCTION     0.51     0.71     5.29     0  03:06        0.71
  WS02003072           JUNCTION     0.57     0.75     5.13     0  03:06        0.75
  WS02003073           JUNCTION     0.35     0.47     4.54     0  03:07        0.47
  WS02003060           JUNCTION     0.45     0.63     5.56     0  03:05        0.63
  WS02003066           JUNCTION     0.24     0.39     5.94     0  03:04        0.39
  WS02003059           JUNCTION     0.76     0.90     5.59     0  03:08        0.90
  WS02003067           JUNCTION     0.58     0.82     6.14     0  03:03        0.82
  WS02004401           JUNCTION     0.71     1.31     7.31     0  03:02        1.24
  WS02004402           JUNCTION     0.74     1.29     7.25     0  03:02        1.22
  WS02004403           JUNCTION     0.76     1.26     7.19     0  03:02        1.20
  WS02004404           JUNCTION     0.83     1.30     7.15     0  03:02        1.24
  WS02004406           JUNCTION     0.83     1.21     7.04     0  03:02        1.16
  WS02004409           JUNCTION     0.52     0.96     6.73     0  03:04        0.96
  WS02004410           JUNCTION     0.54     0.95     6.67     0  03:04        0.95
  WS02004411           JUNCTION     0.55     0.93     6.61     0  03:03        0.93
  WS02004412           JUNCTION     0.56     0.90     6.54     0  03:04        0.90
  WS02004413           JUNCTION     0.71     1.02     6.49     0  03:04        1.02
  WS02004405           JUNCTION     0.83     1.26     7.11     0  03:02        1.21
  WS02006109           JUNCTION     0.81     1.72     8.33     0  03:02        1.68
  WS02006110           JUNCTION     0.79     1.52     8.11     0  03:02        1.47
  WS02006111           JUNCTION     0.25     0.99     7.70     0  03:02        0.90
  WS02006112           JUNCTION     0.89     1.66     7.54     0  03:02        1.56
  WS02006113           JUNCTION     0.37     1.02     7.91     0  03:02        0.94
  WS02006115           JUNCTION     0.61     1.31     7.45     0  03:02        1.22
  WS02006116           JUNCTION     0.69     1.35     7.39     0  03:02        1.26
  WS02006230           JUNCTION     0.81     1.93     8.68     0  03:02        1.91
  WS02006231           JUNCTION     0.55     1.57     8.69     0  03:02        1.55
  WS02006232           JUNCTION     0.69     1.67     8.71     0  03:02        1.65
  WS02006234           JUNCTION     0.62     1.57     8.73     0  03:02        1.55
  WS02006235           JUNCTION     0.66     1.58     8.74     0  03:02        1.56
  WS02006238           JUNCTION     0.69     1.59     8.74     0  03:02        1.57
  WS02006240           JUNCTION     0.58     1.43     8.73     0  03:02        1.42
  WS02006242           JUNCTION     0.63     1.45     8.72     0  03:02        1.44
  WS02006243           JUNCTION     0.51     1.29     8.71     0  03:02        1.28
  WS02006245           JUNCTION     0.48     1.22     8.70     0  03:02        1.21
  WS02006247           JUNCTION     0.49     1.20     8.70     0  03:02        1.19
  WS02006248           JUNCTION     0.43     1.10     8.69     0  03:01        1.10
  WS02006249           JUNCTION     0.45     1.09     8.69     0  03:01        1.09
  WS02006239           JUNCTION     0.64     1.52     8.73     0  03:02        1.50
  WS02006251           JUNCTION     0.43     1.32     8.99     0  05:42        1.14
  WS02006252           JUNCTION     0.28     0.87     9.12     0  05:42        0.69
  WS02006253           JUNCTION     0.46     1.62     9.27     0  04:12        1.17
  WS02006256           JUNCTION     1.75     2.35     9.28     0  00:00        2.35
  WS02004138           JUNCTION     0.19     0.20     7.45     0  00:00        0.19
  WS02004139           JUNCTION     0.71     0.79     5.70     0  03:08        0.79
  WS02004407           JUNCTION     0.23     0.40     6.71     0  03:03        0.40
  WS02006228           JUNCTION     0.82     1.89     8.54     0  03:02        1.86
  WS02006229           JUNCTION     0.81     1.96     8.66     0  03:02        1.94
  WS02006280           JUNCTION     0.07     0.32     8.59     0  03:01        0.30
  WS02006284           JUNCTION     0.37     0.65     9.04     0  03:02        0.64
  WS02006287           JUNCTION     0.10     0.39     9.34     0  03:02        0.39
  WSF200               JUNCTION     0.23     0.44     5.67     0  03:04        0.44
  HS02004901           JUNCTION     0.13     0.38    10.20     0  03:01        0.37
  HS02004881           JUNCTION     0.01     0.05     9.08     0  03:01        0.05
  HS02004876           JUNCTION     0.05     0.16     9.19     0  03:01        0.16
  HS02004870           JUNCTION     0.02     0.09     9.38     0  03:01        0.09
  HS02004862           JUNCTION     0.02     0.11     9.49     0  03:01        0.11
  HS02004856           JUNCTION     0.08     0.15     9.58     0  03:01        0.15
  HS02004852           JUNCTION     0.01     0.07     9.59     0  03:02        0.07
  HS02004848           JUNCTION     0.01     0.07     9.67     0  03:01        0.07
  HS02004842           JUNCTION     0.34     0.40     9.67     0  03:01        0.40
  HS02004837           JUNCTION     0.03     0.09     9.67     0  03:01        0.09
  HS02004830           JUNCTION     0.04     0.10     9.57     0  03:01        0.10
  HS02004824           JUNCTION     0.03     0.13     9.53     0  03:02        0.13
  HS02004817           JUNCTION     0.45     0.69     9.54     0  03:02        0.69
  HS02004807           JUNCTION     0.13     0.36     9.53     0  03:02        0.36
  HS02004802           JUNCTION     0.17     0.39     9.52     0  03:02        0.39
  HS02004799           JUNCTION     0.13     0.46     9.68     0  03:01        0.46
  HS02004792           JUNCTION     0.04     0.22     9.74     0  03:01        0.21
  HS02004788           JUNCTION     0.03     0.16    10.05     0  03:02        0.16
  HS02004785           JUNCTION     0.05     0.25    10.15     0  03:02        0.25
  HS02004777           JUNCTION     0.15     0.39    10.19     0  03:01        0.39
  HS02004770           JUNCTION     0.12     0.37    10.20     0  03:01        0.36
  HS02004480           JUNCTION     0.09     0.38     9.62     0  03:01        0.38
  HS02004479           JUNCTION     0.12     0.42     9.62     0  03:01        0.42
  HS02004478           JUNCTION     0.07     0.28     9.50     0  03:01        0.28
  YS02001745           JUNCTION     0.73     0.96     8.47     0  03:01        0.96
  YS02001748           JUNCTION     1.12     1.69     8.76     0  02:32        1.39
  YS02001751           JUNCTION     1.31     1.59     8.47     0  03:01        1.58
  YS02001754           JUNCTION     1.56     1.85     8.46     0  03:01        1.84
  YS02001762           JUNCTION     1.76     2.05     8.45     0  03:00        2.04
  YS02001765           JUNCTION     1.71     2.00     8.45     0  03:01        1.99
  YS02001767           JUNCTION     1.67     1.95     8.44     0  03:01        1.95
  YS02001770           JUNCTION     1.67     1.94     8.43     0  03:01        1.94
  YS02001774           JUNCTION     1.73     1.99     8.41     0  03:01        1.98
  YS02001779           JUNCTION     1.48     1.68     8.37     0  02:41        1.68
  YS02001882           JUNCTION     0.56     1.65     8.36     0  02:47        1.63
  YS02001884           JUNCTION     0.65     1.74     8.36     0  02:47        1.72
  YS02001759           JUNCTION     1.79     2.09     8.45     0  03:01        2.08
  YS02001887           JUNCTION     0.73     1.81     8.35     0  03:00        1.81
  YS02001890           JUNCTION     0.76     1.81     8.32     0  02:47        1.81
  YS02001898           JUNCTION     0.53     1.57     8.31     0  02:47        1.56
  YS02001901           JUNCTION     0.65     1.68     8.29     0  02:47        1.67
  YS02001904           JUNCTION     0.62     1.64     8.27     0  02:47        1.63
  YS02001907           JUNCTION     0.95     1.96     8.25     0  02:47        1.96
  YS02001910           JUNCTION     0.74     1.79     8.30     0  02:48        1.78
  YS02001915           JUNCTION     0.54     1.63     8.35     0  02:48        1.59
  YS02001918           JUNCTION     0.29     1.34     8.40     0  02:48        1.27
  YS02001619           JUNCTION     1.27     1.50     8.43     0  02:33        1.49
  YS02001629           JUNCTION     1.62     1.85     8.40     0  02:36        1.84
  YS02001641           JUNCTION     1.72     1.94     8.37     0  02:55        1.93
  YS02001644           JUNCTION     1.72     1.92     8.35     0  02:39        1.92
  YS02001652           JUNCTION     1.57     2.12     8.72     0  02:43        1.84
  YS02001655           JUNCTION     1.33     2.14     8.99     0  02:43        1.62
  YS02001920           JUNCTION     0.40     1.43     8.44     0  02:48        1.35
  YS02001923           JUNCTION     0.23     1.20     8.46     0  02:48        1.11
  YS02001926           JUNCTION     0.29     1.19     8.64     0  02:48        0.89
  YS02001929           JUNCTION     0.17     0.76     8.45     0  02:48        0.76
  YS02001658           JUNCTION     1.07     2.14     9.28     0  02:43        1.42
  YS02001661           JUNCTION     0.84     2.13     9.54     0  02:43        1.32
  YS02001664           JUNCTION     0.38     0.57     8.49     0  02:42        0.55
  YS02001622           JUNCTION     1.29     1.51     8.42     0  02:33        1.51
  YS02001633           JUNCTION     1.71     1.95     8.40     0  03:00        1.94
  YS02001649           JUNCTION     1.76     2.05     8.44     0  02:42        2.04
  YS02001757           JUNCTION     1.89     2.19     8.45     0  03:01        2.18
  YS02001895           JUNCTION     0.52     1.57     8.32     0  02:47        1.56
  YS02001625           JUNCTION     1.57     1.78     8.38     0  02:33        1.78
  YS02163301           JUNCTION     1.65     1.88     8.40     0  02:57        1.88
  YS02163601           JUNCTION     1.76     1.99     8.39     0  02:58        1.98
  YS02164001           JUNCTION     1.70     1.92     8.38     0  02:40        1.91
  YS02001647           JUNCTION     1.55     1.80     8.41     0  02:42        1.78
  YSB1154              JUNCTION     0.26     0.57     9.62     0  03:01        0.57
  YSB6556              JUNCTION     0.16     0.45     9.62     0  03:02        0.45
  YSB1174              JUNCTION     0.22     0.51     9.62     0  03:01        0.51
  YSB1171              JUNCTION     0.42     0.72     9.62     0  03:01        0.72
  YS02006553           JUNCTION     0.96     1.97     8.25     0  03:01        1.97
  YS02006561           JUNCTION     0.32     1.10     7.76     0  02:47        1.09
  YS02006556           JUNCTION     0.92     1.93     8.25     0  03:00        1.93
  YS02006558           JUNCTION     0.96     1.98     8.24     0  02:58        1.97
  YS02001783           JUNCTION     0.53     1.49     7.63     0  02:47        1.47
  YS02001784           JUNCTION     0.55     1.67     7.74     0  02:43        1.41
  YS02001786           JUNCTION     0.49     1.84     7.87     0  02:43        1.26
  YS02001788           JUNCTION     0.42     1.77     7.75     0  02:43        1.13
  YS02001790           JUNCTION     0.54     1.96     7.60     0  02:42        1.29
  YS02001791           JUNCTION     0.50     2.72     8.19     0  02:42        1.27
  YS02001793           JUNCTION     0.69     2.31     7.14     0  06:12        1.80
  WSC                  OUTFALL      0.35     0.47     1.14     0  03:07        0.47
  JK-storage           STORAGE      2.86     5.80     6.60     0  02:43        5.80
  CC-storage           STORAGE      1.14     1.44     8.44     0  03:09        1.44
  XR-storage           STORAGE      6.66     7.72     5.72     0  02:57        7.72
  
  
  *******************
  Node Inflow Summary
  *******************
  
  -------------------------------------------------------------------------------------------------
                                  Maximum  Maximum                  Lateral       Total        Flow
                                  Lateral    Total  Time of Max      Inflow      Inflow     Balance
                                   Inflow   Inflow   Occurrence      Volume      Volume       Error
  Node                 Type           LPS      LPS  days hr:min    10^6 ltr    10^6 ltr     Percent
  -------------------------------------------------------------------------------------------------
  WS02001211           JUNCTION      7.35   390.29     0  03:16       0.207          10       0.414
  WS02001212           JUNCTION      0.00   393.17     0  03:16           0        9.98       0.251
  WS02001213           JUNCTION      0.00   395.63     0  03:16           0        9.96       0.302
  WS02003069           JUNCTION      0.32  1303.18     0  03:06     0.00902        19.2       0.207
  WS02003072           JUNCTION      0.00  1302.79     0  03:06           0        19.2       0.242
  WS02003073           JUNCTION      1.82  1305.81     0  03:06      0.0514        19.2       0.286
  WS02003060           JUNCTION     16.53  1303.07     0  03:05       0.466        19.2       0.195
  WS02003066           JUNCTION      0.00   937.57     0  03:04           0        8.88       0.061
  WS02003059           JUNCTION      0.00   398.52     0  03:15           0        9.93       0.422
  WS02003067           JUNCTION      0.00   936.31     0  03:04           0        8.89       0.121
  WS02004401           JUNCTION      0.00   951.47     0  03:03           0        9.16       0.267
  WS02004402           JUNCTION      0.00   952.02     0  03:03           0        9.14       0.248
  WS02004403           JUNCTION      0.00   952.58     0  03:03           0        9.11       0.222
  WS02004404           JUNCTION      0.16   953.34     0  03:03     0.00457         9.1       0.163
  WS02004406           JUNCTION      0.00   953.94     0  03:02           0        9.06       0.398
  WS02004409           JUNCTION      0.00   950.24     0  03:03           0        9.02       0.232
  WS02004410           JUNCTION      0.00   940.78     0  03:03           0           9       0.256
  WS02004411           JUNCTION      0.00   932.65     0  03:04           0        8.97       0.258
  WS02004412           JUNCTION      0.00   933.60     0  03:04           0        8.95       0.272
  WS02004413           JUNCTION      0.00   935.70     0  03:04           0        8.93       0.391
  WS02004405           JUNCTION      0.04   953.52     0  03:03     0.00107        9.08       0.247
  WS02006109           JUNCTION      1.23   927.69     0  03:02      0.0347        9.21       0.224
  WS02006110           JUNCTION      0.00   927.70     0  03:02           0        9.19       0.236
  WS02006111           JUNCTION      0.00   927.37     0  03:03           0        9.16       0.054
  WS02006112           JUNCTION     30.67   950.68     0  03:03      0.0853        9.24       0.329
  WS02006113           JUNCTION      0.00   927.56     0  03:02           0        9.17       0.133
  WS02006115           JUNCTION      0.00   950.32     0  03:03           0        9.21       0.264
  WS02006116           JUNCTION      0.00   950.79     0  03:03           0        9.18       0.253
  WS02006230           JUNCTION     10.28   534.18     0  07:33        0.29        6.79       0.225
  WS02006231           JUNCTION      0.00   524.25     0  07:33           0        6.52       0.218
  WS02006232           JUNCTION      0.00   524.17     0  07:33           0        6.53       0.279
  WS02006234           JUNCTION      0.00   524.03     0  07:33           0        6.54       0.161
  WS02006235           JUNCTION      0.00   523.77     0  06:50           0        6.62       0.176
  WS02006238           JUNCTION      0.00   418.78     0  05:50           0         3.2       0.288
  WS02006240           JUNCTION      0.00   417.02     0  05:50           0        3.17       0.513
  WS02006242           JUNCTION      0.00   416.76     0  05:50           0        3.16       0.585
  WS02006243           JUNCTION      0.00   416.29     0  05:50           0        3.16       0.364
  WS02006245           JUNCTION      0.00   416.36     0  07:40           0        3.16       0.521
  WS02006247           JUNCTION      0.00   416.38     0  05:50           0        3.17       0.360
  WS02006248           JUNCTION      0.00   417.13     0  07:40           0        3.18       0.284
  WS02006249           JUNCTION      0.00   430.71     0  05:42           0        3.33       0.464
  WS02006239           JUNCTION      0.00   418.26     0  05:50           0        3.18       0.344
  WS02006251           JUNCTION      0.08   413.81     0  07:41     0.00217        3.41       0.506
  WS02006252           JUNCTION      0.00   400.00     0  05:40           0        2.88       0.017
  WS02006253           JUNCTION      3.75   143.68     0  03:01      0.0103       0.536       2.410
  WS02006256           JUNCTION      0.00   983.00     0  00:00           0        9.98      -0.014
  WS02004138           JUNCTION      0.00   380.00     0  00:00           0        9.86       0.065
  WS02004139           JUNCTION      0.32   396.51     0  00:00     0.00905        9.86       0.467
  WS02004407           JUNCTION      0.00   955.01     0  03:02           0        9.03       0.102
  WS02006228           JUNCTION      0.00   926.31     0  03:02           0        9.19       0.177
  WS02006229           JUNCTION      0.00   964.86     0  03:01           0        9.21       0.155
  WS02006280           JUNCTION      0.00   679.87     0  03:02           0        2.43       0.015
  WS02006284           JUNCTION      0.10   678.80     0  03:02      0.0027        2.43       0.045
  WS02006287           JUNCTION      0.00   677.47     0  03:02           0        2.43       0.032
  WSF200               JUNCTION      0.00   938.04     0  03:04           0        8.87       0.061
  HS02004901           JUNCTION     37.63    37.63     0  03:01       0.103       0.103       1.742
  HS02004881           JUNCTION     14.26   140.53     0  03:01      0.0422       0.463       0.101
  HS02004876           JUNCTION     25.66   127.61     0  03:01      0.0814       0.422       0.130
  HS02004870           JUNCTION     26.26   103.56     0  03:01      0.0799        0.34       0.035
  HS02004862           JUNCTION     25.49    79.35     0  03:01      0.0888       0.261       0.068
  HS02004856           JUNCTION     19.64    55.40     0  03:01      0.0601       0.173       0.841
  HS02004852           JUNCTION      0.00    37.83     0  03:01           0       0.113       0.053
  HS02004848           JUNCTION     55.75    55.75     0  03:01       0.197       0.197       0.029
  HS02004842           JUNCTION      0.00    16.84     0  03:01           0       0.097      15.490
  HS02004837           JUNCTION     50.35    65.69     0  03:01       0.318       0.402       0.205
  HS02004830           JUNCTION      0.15    64.77     0  03:01     0.00423       0.392       0.316
  HS02004824           JUNCTION     65.57   128.44     0  03:01       0.251       0.642       0.086
  HS02004817           JUNCTION      0.60   124.45     0  03:01      0.0169       0.658       2.599
  HS02004807           JUNCTION     48.45   165.80     0  03:01       0.147       0.788       0.555
  HS02004802           JUNCTION      0.00   165.28     0  03:04           0       0.785       0.508
  HS02004799           JUNCTION     38.67   445.89     0  03:01       0.119        1.42       0.191
  HS02004792           JUNCTION    184.82   411.80     0  03:01        0.54         1.3       0.034
  HS02004788           JUNCTION     58.68   233.34     0  03:02       0.219       0.758       0.053
  HS02004785           JUNCTION      0.15   182.18     0  03:01     0.00423        0.54       0.094
  HS02004777           JUNCTION      0.03   184.98     0  03:01    0.000846       0.541       0.972
  HS02004770           JUNCTION    154.22   188.93     0  03:01       0.441       0.542       0.578
  HS02004480           JUNCTION      0.00   517.02     0  03:01           0        1.66       0.069
  HS02004479           JUNCTION      0.00    75.42     0  03:02           0       0.258       0.286
  HS02004478           JUNCTION      0.00   676.92     0  03:02           0        2.43       0.010
  YS02001745           JUNCTION    438.14   438.14     0  03:01        3.01        3.02       0.342
  YS02001748           JUNCTION      0.04   569.74     0  02:32     0.00127        3.01       0.715
  YS02001751           JUNCTION      0.01   441.29     0  03:01     0.00031        2.98       0.809
  YS02001754           JUNCTION      0.26   441.34     0  03:01     0.00733        2.96       0.844
  YS02001762           JUNCTION      0.00   316.53     0  02:43           0        2.14       1.008
  YS02001765           JUNCTION      0.00   316.00     0  02:42           0        2.14       1.153
  YS02001767           JUNCTION      0.54   316.40     0  02:42      0.0151        2.16       1.691
  YS02001770           JUNCTION    552.50   715.93     0  03:07        3.37        4.18       0.767
  YS02001774           JUNCTION      0.00   716.07     0  03:07           0        2.82       0.902
  YS02001779           JUNCTION      0.01   716.13     0  03:07    0.000141        2.79       0.563
  YS02001882           JUNCTION      0.00    13.64     0  02:43           0      0.0248       8.570
  YS02001884           JUNCTION      0.00    26.83     0  02:43           0      0.0612      10.942
  YS02001759           JUNCTION    536.49   622.03     0  02:43        3.11         4.4       0.524
  YS02001887           JUNCTION    679.97   680.00     0  03:01        3.57         3.6       0.232
  YS02001890           JUNCTION      0.00   679.95     0  03:01           0        3.55       0.250
  YS02001898           JUNCTION      0.00   517.59     0  03:02           0        3.45       0.092
  YS02001901           JUNCTION      0.00   518.01     0  03:02           0        3.45       0.186
  YS02001904           JUNCTION      0.00   517.31     0  03:03           0        3.44       0.163
  YS02001907           JUNCTION      0.00  1108.75     0  03:01           0        7.77       0.299
  YS02001910           JUNCTION      0.00   592.51     0  03:01           0        4.34       0.273
  YS02001915           JUNCTION    389.26   592.39     0  03:01        2.52        4.38       0.132
  YS02001918           JUNCTION      0.00   274.26     0  02:49           0        1.88       0.073
  YS02001619           JUNCTION    380.66   380.66     0  03:01        2.51        2.51       0.486
  YS02001629           JUNCTION      0.00   196.11     0  02:39           0        1.59       1.850
  YS02001641           JUNCTION      0.00   413.50     0  02:38           0        4.45       0.474
  YS02001644           JUNCTION    416.76  1563.01     0  03:01         2.9        11.6       0.226
  YS02001652           JUNCTION      0.00   500.91     0  03:01           0        2.62       0.919
  YS02001655           JUNCTION      0.15   500.27     0  03:01     0.00434        2.65       0.916
  YS02001920           JUNCTION      2.87   274.21     0  02:49      0.0809        1.87       0.145
  YS02001923           JUNCTION      0.04   286.20     0  02:49     0.00106        1.78       0.039
  YS02001926           JUNCTION      0.05   286.48     0  02:47     0.00147        1.76       0.189
  YS02001929           JUNCTION    189.18   204.92     0  02:47        1.75        1.75       0.038
  YS02001658           JUNCTION      0.00   629.77     0  02:29           0        2.68       0.757
  YS02001661           JUNCTION      0.00   674.53     0  02:42           0        2.96       0.106
  YS02001664           JUNCTION    492.63   492.63     0  03:01        2.67        2.95       0.162
  YS02001622           JUNCTION      0.00   381.14     0  03:01           0         2.5       1.286
  YS02001633           JUNCTION    423.29   423.29     0  03:01        2.99        4.52       0.718
  YS02001649           JUNCTION      0.00   871.94     0  02:39           0        6.84       0.546
  YS02001757           JUNCTION      0.00  1677.56     0  02:41           0         9.2       1.007
  YS02001895           JUNCTION      0.00   517.44     0  02:57           0        3.45       0.142
  YS02001625           JUNCTION      0.00   407.95     0  03:01           0        2.48       1.589
  YS02163301           JUNCTION      0.00   203.46     0  02:32           0        1.57       1.553
  YS02163601           JUNCTION      0.11   412.57     0  02:39      0.0031        4.48       0.675
  YS02164001           JUNCTION      0.00   412.63     0  02:39           0        4.46       0.460
  YS02001647           JUNCTION      0.00   791.39     0  03:09           0        6.03       0.471
  YSB1154              JUNCTION     44.76    44.76     0  03:01       0.144       0.144       1.018
  YSB6556              JUNCTION      0.00    43.27     0  03:01           0       0.145       0.869
  YSB1174              JUNCTION     38.10    38.10     0  03:01       0.106       0.107       1.223
  YSB1171              JUNCTION      0.00    76.88     0  03:01           0       0.257       2.526
  YS02006553           JUNCTION      0.00   710.97     0  03:46           0         6.7       0.221
  YS02006561           JUNCTION      0.00   981.16     0  03:25           0        9.93       0.002
  YS02006556           JUNCTION      0.00   710.39     0  03:46           0        6.71       0.148
  YS02006558           JUNCTION    587.14   981.61     0  03:25        3.28        9.96       0.050
  YS02001783           JUNCTION      0.00   981.07     0  03:25           0        9.93       0.021
  YS02001784           JUNCTION      1.06   982.25     0  03:25      0.0299        9.96       0.036
  YS02001786           JUNCTION      0.06   982.17     0  03:25     0.00159        9.96       0.034
  YS02001788           JUNCTION      0.07   982.24     0  03:25       0.002        9.96       0.019
  YS02001790           JUNCTION      0.15   982.38     0  03:25     0.00437        9.96       0.015
  YS02001791           JUNCTION      0.00   982.53     0  03:25           0        9.96       0.008
  YS02001793           JUNCTION      0.00   982.59     0  03:25           0        9.96      -0.019
  WSC                  OUTFALL       0.00  1308.84     0  03:07           0        19.1       0.000
  JK-storage           STORAGE       0.00  1005.52     0  02:41           0        10.1      -9.427
  CC-storage           STORAGE       0.00  1677.48     0  02:41           0        6.61       0.948
  XR-storage           STORAGE    1024.87  1024.87     0  03:01        12.7        13.3      -0.004
  
  
  **********************
  Node Surcharge Summary
  **********************
  
  Surcharging occurs when water rises above the top of the highest conduit.
  ---------------------------------------------------------------------
                                               Max. Height   Min. Depth
                                   Hours       Above Crown    Below Rim
  Node                 Type      Surcharged         Meters       Meters
  ---------------------------------------------------------------------
  WS02004401           JUNCTION        0.39          0.309        1.351
  WS02004402           JUNCTION        0.42          0.291        1.449
  WS02004403           JUNCTION        0.43          0.259        1.771
  WS02004404           JUNCTION        0.67          0.295        2.485
  WS02004406           JUNCTION        0.51          0.209        2.241
  WS02004413           JUNCTION        0.12          0.024        2.176
  WS02004405           JUNCTION        0.59          0.261        2.539
  WS02006109           JUNCTION        3.01          0.896        0.924
  WS02006110           JUNCTION        1.56          0.612        1.238
  WS02006111           JUNCTION        0.07          0.179        1.691
  WS02006112           JUNCTION        1.84          0.658        1.022
  WS02006113           JUNCTION        0.09          0.219        1.711
  WS02006115           JUNCTION        0.28          0.299        1.951
  WS02006116           JUNCTION        0.30          0.289        2.001
  WS02006230           JUNCTION        0.94          0.854        0.716
  WS02006231           JUNCTION        1.28          0.861        0.669
  WS02006232           JUNCTION        2.90          0.972        0.508
  WS02006234           JUNCTION        1.99          0.849        0.391
  WS02006235           JUNCTION        2.30          0.870        0.420
  WS02006238           JUNCTION        2.41          0.875        0.555
  WS02006240           JUNCTION        1.80          0.724        0.666
  WS02006242           JUNCTION        1.89          0.719        0.101
  WS02006243           JUNCTION        1.51          0.581        0.189
  WS02006245           JUNCTION        1.39          0.509        0.341
  WS02006247           JUNCTION        1.40          0.492        0.268
  WS02006248           JUNCTION        1.25          0.380        0.000
  WS02006249           JUNCTION        1.29          0.390        0.000
  WS02006239           JUNCTION        1.93          0.781        0.509
  WS02006251           JUNCTION        0.58          0.286        0.894
  WS02006252           JUNCTION        1.83          0.475        0.625
  WS02006253           JUNCTION        0.63          0.583        1.897
  WS02006256           JUNCTION        6.67          2.050        0.000
  WS02006228           JUNCTION        2.97          1.055        1.145
  YS02001748           JUNCTION        5.22          0.607        0.583
  YS02001751           JUNCTION        5.38          0.587        0.613
  YS02001754           JUNCTION        5.58          0.799        0.351
  YS02001762           JUNCTION        5.75          1.051        0.099
  YS02001765           JUNCTION        5.72          0.998        0.102
  YS02001767           JUNCTION        5.70          0.952        0.078
  YS02001770           JUNCTION        5.68          0.908        0.012
  YS02001774           JUNCTION        5.74          0.992        0.058
  YS02001779           JUNCTION        5.56          0.680        0.000
  YS02001882           JUNCTION        1.07          0.646        0.184
  YS02001884           JUNCTION        1.10          0.679        0.191
  YS02001759           JUNCTION        5.78          1.087        0.123
  YS02001887           JUNCTION        1.17          0.765        0.185
  YS02001890           JUNCTION        1.20          0.760        0.000
  YS02001898           JUNCTION        1.04          0.542        0.198
  YS02001901           JUNCTION        1.14          0.680        0.190
  YS02001904           JUNCTION        1.11          0.638        0.212
  YS02001907           JUNCTION        1.91          0.950        0.000
  YS02001910           JUNCTION        1.25          0.795        0.305
  YS02001915           JUNCTION        1.07          0.628        0.372
  YS02001918           JUNCTION        0.91          0.336        0.474
  YS02001619           JUNCTION        5.37          0.501        0.109
  YS02001629           JUNCTION        5.38          0.466        0.004
  YS02001641           JUNCTION        5.73          0.936        0.164
  YS02001644           JUNCTION        5.73          0.920        0.000
  YS02001652           JUNCTION        5.61          1.090        0.040
  YS02001655           JUNCTION        5.39          1.144        0.056
  YS02001920           JUNCTION        0.94          0.428        0.712
  YS02001926           JUNCTION        0.01          0.191        0.709
  YS02001658           JUNCTION        5.25          1.138        0.162
  YS02001661           JUNCTION        0.07          1.064        0.326
  YS02001622           JUNCTION        5.41          0.514        0.106
  YS02001633           JUNCTION        5.71          0.928        0.132
  YS02001649           JUNCTION        5.76          1.050        0.000
  YS02001757           JUNCTION        5.86          1.185        0.025
  YS02001895           JUNCTION        1.05          0.570        0.180
  YS02001625           JUNCTION        5.64          0.780        0.000
  YS02163301           JUNCTION        5.69          0.885        0.145
  YS02163601           JUNCTION        5.75          0.988        0.092
  YS02164001           JUNCTION        5.72          0.918        0.182
  YS02001647           JUNCTION        5.62          0.800        0.100
  YS02006553           JUNCTION        1.97          0.970        0.220
  YS02006561           JUNCTION        0.96          0.301        0.849
  YS02006556           JUNCTION        1.48          0.894        0.456
  YS02006558           JUNCTION        1.44          0.876        0.524
  YS02001783           JUNCTION        1.19          0.689        0.911
  YS02001784           JUNCTION        1.15          0.868        0.622
  YS02001786           JUNCTION        1.08          1.037        0.393
  YS02001788           JUNCTION        1.03          0.968        0.512
  YS02001790           JUNCTION        1.93          1.157        0.000
  YS02001791           JUNCTION        2.10          1.920        0.000
  YS02001793           JUNCTION        2.44          1.310        1.290
  
  
  *********************
  Node Flooding Summary
  *********************
  
  Flooding refers to all water that overflows a node, whether it ponds or not.
  --------------------------------------------------------------------------
                                                             Total   Maximum
                                 Maximum   Time of Max       Flood    Ponded
                        Hours       Rate    Occurrence      Volume     Depth
  Node                 Flooded       LPS   days hr:min    10^6 ltr    Meters
  --------------------------------------------------------------------------
  WS02006248              0.05     34.74      0  03:03       0.003     0.000
  WS02006249              0.54    138.58      0  03:04       0.130     0.000
  WS02006256              3.96    978.40      0  00:00       6.492     0.000
  YS02001779              3.10    716.13      0  03:07       2.771     0.000
  YS02001890              0.35    164.38      0  03:01       0.085     0.000
  YS02001907              0.78    717.75      0  03:01       1.057     0.000
  YS02001644              4.59   1562.77      0  03:01       9.783     0.000
  YS02001649              0.01     37.85      0  02:43       0.000     0.000
  YS02001625              1.41    407.94      0  03:01       0.855     0.000
  YS02001790              0.01    153.04      0  02:42       0.000     0.000
  YS02001791              0.01    190.79      0  02:42       0.000     0.000
  JK-storage              0.85    966.44      0  02:49       1.128     0.000
  XR-storage              3.49    644.79      0  03:01       2.672     0.000
  
  
  **********************
  Storage Volume Summary
  **********************
  
  --------------------------------------------------------------------------------------------------
                         Average     Avg  Evap Exfil       Maximum     Max    Time of Max    Maximum
                          Volume    Pcnt  Pcnt  Pcnt        Volume    Pcnt     Occurrence    Outflow
  Storage Unit           1000 m3    Full  Loss  Loss       1000 m3    Full    days hr:min        LPS
  --------------------------------------------------------------------------------------------------
  JK-storage               0.144      49     0     0         0.291     100       0  02:43     983.00
  CC-storage               3.188      20     0     0         4.013      26       0  03:09     400.00
  XR-storage               0.800      86     0     0         0.926     100       0  02:57     380.00
  
  
  ***********************
  Outfall Loading Summary
  ***********************
  
  ---------------------------------------------------------------------------------------------------------------------------------
                         Flow       Avg       Max       Total         Total         Total         Total         Total         Total
                         Freq      Flow      Flow      Volume           COD            SS            TN            TP         NH4-N
  Outfall Node           Pcnt       LPS       LPS    10^6 ltr            kg            kg            kg            kg            kg
  ---------------------------------------------------------------------------------------------------------------------------------
  WSC                   99.98    761.92   1308.84      19.105      2318.753      4006.195       147.195        17.302        89.008
  ---------------------------------------------------------------------------------------------------------------------------------
  System                99.98    761.92   1308.84      19.105      2318.753      4006.195       147.195        17.302        89.008
  
  
  ********************
  Link Flow Summary
  ********************
  
  -----------------------------------------------------------------------------
                                 Maximum  Time of Max   Maximum    Max/    Max/
                                  |Flow|   Occurrence   |Veloc|    Full    Full
  Link                 Type          LPS  days hr:min     m/sec    Flow   Depth
  -----------------------------------------------------------------------------
  WS02003066WSF200     CONDUIT    938.04     0  03:04      3.00    0.16    0.32
  WS02006287WS02006284 CONDUIT    678.70     0  03:02      2.38    0.31    0.39
  WS02006284WS02006280 CONDUIT    679.87     0  03:02      2.62    0.28    0.37
  WS02006280WS02006229 CONDUIT    688.76     0  03:01      4.05    0.15    0.53
  WS02006229WS02006228 CONDUIT    926.31     0  03:02      1.84    3.07    1.00
  WS02006256WS02006235 CONDUIT    288.60     0  00:00      4.23    3.05    1.00
  WS02006253WS02006251 CONDUIT    162.19     0  03:01      0.69    0.49    1.00
  WS02006252WS02006251 CONDUIT    404.39     0  05:42      3.22    1.48    1.00
  WS02006251WS02006249 CONDUIT    430.71     0  05:42      1.13    1.24    1.00
  WS02006249WS02006248 CONDUIT    417.13     0  07:40      1.19    2.28    1.00
  WS02006248WS02006247 CONDUIT    416.38     0  05:50      1.16    0.91    1.00
  WS02006247WS02006245 CONDUIT    416.36     0  07:40      1.14    3.30    1.00
  WS02006245WS02006243 CONDUIT    416.29     0  05:50      1.17    1.23    1.00
  WS02006243WS02006242 CONDUIT    416.76     0  05:50      1.08    0.89    1.00
  WS02006242WS02006240 CONDUIT    417.02     0  05:50      1.08    1.66    1.00
  WS02006240WS02006239 CONDUIT    418.26     0  05:50      1.09    1.32    1.00
  WS02006239WS02006238 CONDUIT    418.78     0  05:50      1.09    1.34    1.00
  WS02006238WS02006235 CONDUIT    419.57     0  05:50      1.46    0.94    1.00
  WS02006235WS02006234 CONDUIT    524.03     0  07:33      1.36    5.53    1.00
  WS02006234WS02006232 CONDUIT    524.17     0  07:33      1.39    1.06    1.00
  WS02006232WS02006231 CONDUIT    524.25     0  07:33      1.36    1.10    1.00
  WS02006231WS02006230 CONDUIT    523.90     0  07:33      1.39    7.95    1.00
  WS02006230WS02006229 CONDUIT    535.12     0  07:32      1.39   11.91    1.00
  WS02006228WS02006109 CONDUIT    926.46     0  03:02      1.84    4.05    1.00
  WS02006116WS02004401 CONDUIT    951.47     0  03:03      1.21    1.31    1.00
  WS02006115WS02006116 CONDUIT    950.79     0  03:03      1.21    1.22    1.00
  WS02006113WS02006111 CONDUIT    927.37     0  03:03      2.61    1.11    1.00
  WS02006112WS02006115 CONDUIT    950.32     0  03:03      1.21    0.56    1.00
  WS02006111WS02006112 CONDUIT    928.00     0  03:03      1.85    0.44    1.00
  WS02006110WS02006113 CONDUIT    927.56     0  03:02      1.85    0.84    1.00
  WS02006109WS02006110 CONDUIT    927.70     0  03:02      1.85    1.78    1.00
  WS02004411WS02004412 CONDUIT    933.60     0  03:04      1.24    1.33    0.92
  WS02004401WS02004402 CONDUIT    952.02     0  03:03      1.21    1.14    1.00
  WS02004413WS02003067 CONDUIT    936.31     0  03:04      1.55    0.40    0.72
  WS02004412WS02004413 CONDUIT    935.70     0  03:04      1.21    0.63    0.95
  WS02004410WS02004411 CONDUIT    932.65     0  03:04      1.23    1.27    0.94
  WS02004409WS02004410 CONDUIT    940.78     0  03:03      1.23    1.22    0.95
  WS02004407WS02004409 CONDUIT    950.24     0  03:03      1.71    0.34    0.68
  WS02004406WS02004407 CONDUIT    955.01     0  03:02      1.63    0.43    0.70
  WS02004405WS02004406 CONDUIT    953.94     0  03:02      1.21    1.88    1.00
  WS02004404WS02004405 CONDUIT    953.48     0  03:03      1.21    9.34    1.00
  WS02004403WS02004404 CONDUIT    953.18     0  03:03      1.21    0.69    1.00
  WS02004402WS02004403 CONDUIT    952.58     0  03:03      1.21    1.37    1.00
  WS02004139WS02001211 CONDUIT    382.94     0  03:16      0.90    0.48    0.64
  WS02004138WS02004139 CONDUIT    396.19     0  00:00      3.65    0.08    0.46
  WS02003067WS02003066 CONDUIT    937.57     0  03:04      1.65    0.30    0.50
  WS02001213WS02003059 CONDUIT    398.52     0  03:15      0.88    0.66    0.86
  WS02001212WS02001213 CONDUIT    395.63     0  03:16      1.32    0.61    0.55
  WS02001211WS02001212 CONDUIT    393.17     0  03:16      0.78    0.30    0.71
  WS02003072WS02003073 CONDUIT   1303.99     0  03:06      1.94    2.82    0.57
  WS02003069WS02003072 CONDUIT   1302.79     0  03:06      1.80    0.63    0.61
  WS02003060WS02003069 CONDUIT   1302.86     0  03:06      2.02    0.51    0.56
  WS02003059WS02003060 CONDUIT    402.00     0  03:15      0.95    0.26    0.76
  HS02004901HS02004770 CONDUIT     37.23     0  03:01      0.10    0.14    0.53
  HS02004876HS02004881 CONDUIT    127.60     0  03:01      1.21    1.36    0.15
  HS02004870HS02004876 CONDUIT    103.07     0  03:01      0.82    0.07    0.18
  HS02004842HS02004848 CONDUIT     16.84     0  03:01      0.07    0.01    0.33
  HS02004837HS02004842 CONDUIT     17.91     0  03:03      0.42    0.01    0.35
  HS02004830HS02004837 CONDUIT     64.62     0  03:01      0.67    0.06    0.14
  HS02004824HS02004830 CONDUIT     64.10     0  03:01      0.62    0.08    0.16
  HS02004817HS02004824 CONDUIT    123.85     0  03:01      0.31    0.06    0.58
  HS02004770HS02004777 CONDUIT    184.95     0  03:01      0.49    0.34    0.54
  HS02004799HS02004480 CONDUIT    444.21     0  03:01      1.07    0.56    0.60
  HS02004792HS02004799 CONDUIT    408.29     0  03:01      1.20    0.25    0.49
  HS02004788HS02004792 CONDUIT    232.85     0  03:02      1.28    0.15    0.26
  HS02004785HS02004788 CONDUIT    181.75     0  03:02      0.91    1.37    0.29
  HS02004777HS02004785 CONDUIT    182.03     0  03:01      0.57    0.22    0.45
  HS02004480HS02004478 CONDUIT    517.18     0  03:01      1.55    2.18    0.48
  HS02004479HS02004480 CONDUIT     77.28     0  03:02      0.30    0.07    0.57
  HS02004862HS02004870 CONDUIT     79.01     0  03:01      0.80    0.09    0.14
  HS02004848HS02004852 CONDUIT     37.83     0  03:01      0.53    0.04    0.10
  HS02004856HS02004862 CONDUIT     54.75     0  03:01      0.59    0.05    0.13
  HS02004852HS02004856 CONDUIT     37.74     0  03:02      0.34    0.04    0.16
  HS02004802HS02004478 CONDUIT    170.11     0  03:04      0.54    0.15    0.48
  HS02004478WS02006287 CONDUIT    677.47     0  03:02      2.11    0.19    0.36
  HS02004817HS02004807 CONDUIT    128.06     0  03:04      0.25    0.08    0.75
  HS02004807HS02004802 CONDUIT    165.28     0  03:04      0.46    0.32    0.53
  YS02001759YS02001757 CONDUIT    622.09     0  02:43      0.79    0.44    1.00
  YS02001762YS02001759 CONDUIT    315.57     0  02:43      0.40    0.36    1.00
  YS02001765YS02001762 CONDUIT    316.53     0  02:43      0.40    0.30    1.00
  YS02001770YS02001767 CONDUIT    315.87     0  02:42      0.40    1.25    1.00
  YS02001774YS02001770 CONDUIT    716.07     0  03:07      0.91    0.46    1.00
  YS02001779YS02001774 CONDUIT    716.13     0  03:07      0.91    0.36    1.00
  YS02001649YS02001757 CONDUIT    872.51     0  02:40      1.11    0.53    1.00
  YS02001767YS02001765 CONDUIT    316.00     0  02:42      0.40    0.40    1.00
  YS02006561YS02001783 CONDUIT    981.07     0  03:25      2.18    0.51    1.00
  YS02001783YS02001784 CONDUIT    981.19     0  03:25      1.95    1.35    1.00
  YS02001784YS02001785 CONDUIT    982.11     0  03:25      1.95    2.29    1.00
  YS02001788YS02001790 CONDUIT    982.23     0  03:25      2.44    0.72    1.00
  YS02001790YS02001791 CONDUIT    982.53     0  03:25      3.01    1.07    1.00
  YS02001791YS02001793 CONDUIT    982.59     0  03:25      6.00    0.42    1.00
  YS02001910YS02001907 CONDUIT    592.41     0  03:01      0.75    0.33    1.00
  YS02001786YS02001788 CONDUIT    982.17     0  03:25      2.32    1.89    1.00
  YS02001915YS02001910 CONDUIT    592.51     0  03:01      0.75    0.29    1.00
  YS02001918YS02001915 CONDUIT    274.80     0  02:49      0.44    0.15    1.00
  YS02001923YS02001920 CONDUIT    271.34     0  02:49      0.75    0.12    1.00
  YS02001926YS02001923 CONDUIT    286.16     0  02:49      0.86    0.41    0.96
  YS02001929YS02001926 CONDUIT    270.36     0  02:49      0.92    0.13    0.85
  YS02001920YS02001918 CONDUIT    274.26     0  02:49      0.72    0.27    1.00
  YS02001629YS02163301 CONDUIT    203.46     0  02:32      0.26    0.25    1.00
  YS02001619YS02001622 CONDUIT    381.14     0  03:01      0.59    0.56    1.00
  YS02001622YS02001625 CONDUIT    380.75     0  03:01      0.48    0.20    1.00
  YS02001625YS02001629 CONDUIT    196.11     0  02:39      0.25    0.09    1.00
  YS02163301YS02001633 CONDUIT    205.72     0  02:34      0.26    0.19    1.00
  YS02163601YS02164001 CONDUIT    412.63     0  02:39      0.53    0.37    1.00
  YS02164001YS02001641 CONDUIT    413.50     0  02:38      0.53    0.56    1.00
  YS02001641YS02001644 CONDUIT    412.53     0  02:38      0.53    1.33    1.00
  YS02001647YS02001649 CONDUIT    791.39     0  03:09      1.01    0.42    1.00
  YS02006553YS02006556 CONDUIT    710.39     0  03:46      0.90    0.61    1.00
  YS02006556YS02006558 CONDUIT    710.39     0  03:46      0.90    0.56    1.00
  YSB6556YSB1171       CONDUIT     42.80     0  03:02      0.13    0.04    0.82
  YS02001907YS02006553 CONDUIT    710.97     0  03:46      0.79    0.84    1.00
  YS02006558YS02006561 CONDUIT    981.16     0  03:25      3.53    2.17    1.00
  YS02001633YS02163601 CONDUIT    412.46     0  02:39      0.53    0.43    1.00
  YS02001644YS02001647 CONDUIT    791.42     0  03:09      1.01    0.46    1.00
  YS02001745YS02001748 CONDUIT    569.69     0  02:32      1.46    0.22    0.98
  YS02001748YS02001751 CONDUIT    441.28     0  03:01      1.03    0.22    1.00
  YS02001751YS02001754 CONDUIT    441.08     0  03:01      0.88    0.21    1.00
  YS02001754YS02001757 CONDUIT    441.45     0  03:01      0.56    0.18    1.00
  YS02001882YS02001884 CONDUIT     13.64     0  02:43      0.12    0.02    1.00
  YS02001884YS02001887 CONDUIT     26.83     0  02:43      0.08    0.04    1.00
  YS02001890YS02001895 CONDUIT    517.44     0  02:57      0.66    0.24    1.00
  YS02001895YS02001898 CONDUIT    517.59     0  03:02      0.66    0.90    1.00
  YS02001898YS02001901 CONDUIT    518.01     0  03:02      0.66    0.33    1.00
  YS02001901YS02001904 CONDUIT    517.31     0  03:03      0.66    0.80    1.00
  YS02001904YS02001907 CONDUIT    517.48     0  02:57      0.66    0.18    1.00
  YS02001887YS02001890 CONDUIT    679.95     0  03:01      0.87    1.16    1.00
  YS02001652YS02001649 CONDUIT    501.22     0  03:01      0.64    0.25    1.00
  YS02001655YS02001652 CONDUIT    500.91     0  03:01      0.94    0.24    1.00
  YS02001658YS02001655 CONDUIT    500.12     0  03:01      1.18    0.21    1.00
  YS02001661YS02001658 CONDUIT    629.77     0  02:29      1.52    0.25    1.00
  YS02001664YS02001661 CONDUIT    674.53     0  02:42      1.43    0.21    0.77
  YSB1154YSB6556       CONDUIT     43.27     0  03:01      0.18    0.08    0.73
  YSB1174YSB1171       CONDUIT     36.63     0  03:01      0.11    0.06    0.85
  YSB1171HS02004479    CONDUIT     75.42     0  03:02      0.54    0.05    0.68
  HS02004881HS02006253 CONDUIT    140.44     0  03:01      2.49    0.03    0.54
  YS02001793JiankangQianchi CONDUIT   1005.52     0  02:41     16.52    0.08    1.00
  YS02001757CaochengTiaoxuchi CONDUIT   1677.48     0  02:41      2.17    0.74    1.00
  WSF200WS02003060     CONDUIT    939.21     0  03:04      1.95    0.21    0.44
  1                    CONDUIT   1308.84     0  03:07      3.57    0.46    0.47
  CC-Pump-1            PUMP       200.00     0  03:10              1.00
  CC-Pump-2            PUMP       200.00     0  05:40              1.00
  JK-Pump-1            PUMP       300.00     0  00:00              1.00
  JK-Pump-2            PUMP       683.00     0  00:00              1.00
  XR-Pump-1            PUMP        95.00     0  00:00              1.00
  XR-Pump-2            PUMP        95.00     0  00:00              1.00
  XR-Pump-3            PUMP        95.00     0  00:00              1.00
  XR-Pump-4            PUMP        95.00     0  00:00              1.00
  
  
  ***************************
  Flow Classification Summary
  ***************************
  
  -------------------------------------------------------------------------------------
                      Adjusted    ---------- Fraction of Time in Flow Class ---------- 
                       /Actual         Up    Down  Sub   Sup   Up    Down  Norm  Inlet 
  Conduit               Length    Dry  Dry   Dry   Crit  Crit  Crit  Crit  Ltd   Ctrl  
  -------------------------------------------------------------------------------------
  WS02003066WSF200        1.00   0.01  0.07  0.00  0.00  0.92  0.00  0.00  0.50  0.00
  WS02006287WS02006284    1.00   0.03  0.02  0.00  0.62  0.33  0.00  0.00  0.65  0.00
  WS02006284WS02006280    1.00   0.04  0.00  0.00  0.00  0.00  0.00  0.96  0.00  0.00
  WS02006280WS02006229    1.00   0.04  0.00  0.00  0.01  0.02  0.00  0.93  0.01  0.00
  WS02006229WS02006228    1.00   0.00  0.00  0.00  1.00  0.00  0.00  0.00  0.00  0.00
  WS02006256WS02006235    1.00   0.00  0.00  0.00  1.00  0.00  0.00  0.00  0.00  0.00
  WS02006253WS02006251    1.00   0.02  0.02  0.00  0.96  0.00  0.01  0.00  0.00  0.00
  WS02006252WS02006251    1.00   0.22  0.00  0.00  0.09  0.00  0.69  0.00  0.00  0.00
  WS02006251WS02006249    1.00   0.00  0.00  0.00  1.00  0.00  0.00  0.00  0.32  0.00
  WS02006249WS02006248    1.00   0.00  0.01  0.00  0.87  0.00  0.12  0.00  0.00  0.00
  WS02006248WS02006247    1.00   0.01  0.00  0.00  0.98  0.00  0.00  0.01  0.18  0.00
  WS02006247WS02006245    1.00   0.01  0.00  0.00  0.96  0.00  0.00  0.03  0.00  0.00
  WS02006245WS02006243    1.00   0.00  0.00  0.00  0.93  0.00  0.00  0.07  0.01  0.00
  WS02006243WS02006242    1.00   0.00  0.00  0.00  1.00  0.00  0.00  0.00  0.28  0.00
  WS02006242WS02006240    1.00   0.00  0.00  0.00  1.00  0.00  0.00  0.00  0.00  0.00
  WS02006240WS02006239    1.00   0.00  0.00  0.00  0.94  0.00  0.00  0.06  0.02  0.00
  WS02006239WS02006238    1.00   0.00  0.00  0.00  1.00  0.00  0.00  0.00  0.14  0.00
  WS02006238WS02006235    1.00   0.00  0.00  0.00  1.00  0.00  0.00  0.00  0.00  0.00
  WS02006235WS02006234    1.00   0.00  0.00  0.00  0.95  0.00  0.05  0.00  0.00  0.00
  WS02006234WS02006232    1.00   0.00  0.00  0.00  1.00  0.00  0.00  0.00  0.11  0.00
  WS02006232WS02006231    1.00   0.00  0.00  0.00  1.00  0.00  0.00  0.00  0.00  0.00
  WS02006231WS02006230    1.00   0.00  0.00  0.00  0.70  0.00  0.30  0.00  0.00  0.00
  WS02006230WS02006229    1.00   0.00  0.00  0.00  1.00  0.00  0.00  0.00  0.01  0.00
  WS02006228WS02006109    1.00   0.00  0.00  0.00  1.00  0.00  0.00  0.00  0.00  0.00
  WS02006116WS02004401    1.00   0.01  0.00  0.00  0.99  0.00  0.00  0.00  0.01  0.00
  WS02006115WS02006116    1.00   0.01  0.00  0.00  0.97  0.00  0.00  0.02  0.01  0.00
  WS02006113WS02006111    1.00   0.01  0.00  0.00  0.04  0.96  0.00  0.00  0.18  0.00
  WS02006112WS02006115    1.00   0.01  0.00  0.00  0.99  0.00  0.00  0.00  0.00  0.00
  WS02006111WS02006112    1.00   0.01  0.00  0.00  0.99  0.00  0.00  0.00  0.91  0.00
  WS02006110WS02006113    1.00   0.00  0.00  0.00  0.99  0.00  0.00  0.00  0.00  0.00
  WS02006109WS02006110    1.00   0.00  0.00  0.00  0.99  0.00  0.00  0.00  0.00  0.00
  WS02004411WS02004412    1.00   0.06  0.00  0.00  0.94  0.00  0.00  0.00  0.00  0.00
  WS02004401WS02004402    1.00   0.01  0.00  0.00  0.99  0.00  0.00  0.00  0.01  0.00
  WS02004413WS02003067    1.00   0.06  0.01  0.00  0.00  0.00  0.93  0.00  0.00  0.00
  WS02004412WS02004413    1.00   0.06  0.00  0.00  0.94  0.00  0.00  0.00  0.00  0.00
  WS02004410WS02004411    1.00   0.06  0.00  0.00  0.94  0.00  0.00  0.00  0.00  0.00
  WS02004409WS02004410    1.00   0.06  0.00  0.00  0.94  0.00  0.00  0.00  0.00  0.00
  WS02004407WS02004409    1.00   0.06  0.00  0.00  0.94  0.01  0.00  0.00  0.80  0.00
  WS02004406WS02004407    1.00   0.00  0.06  0.00  0.94  0.00  0.00  0.00  0.00  0.00
  WS02004405WS02004406    1.00   0.00  0.00  0.00  1.00  0.00  0.00  0.00  0.02  0.00
  WS02004404WS02004405    1.00   0.00  0.00  0.00  1.00  0.00  0.00  0.00  0.00  0.00
  WS02004403WS02004404    1.00   0.00  0.01  0.00  0.99  0.00  0.00  0.00  0.02  0.00
  WS02004402WS02004403    1.00   0.01  0.00  0.00  0.99  0.00  0.00  0.00  0.00  0.00
  WS02004139WS02001211    1.00   0.00  0.00  0.00  1.00  0.00  0.00  0.00  0.00  0.00
  WS02004138WS02004139    1.00   0.00  0.00  0.00  1.00  0.00  0.00  0.00  1.00  0.00
  WS02003067WS02003066    1.00   0.07  0.00  0.00  0.92  0.00  0.00  0.00  0.00  0.00
  WS02001213WS02003059    1.00   0.00  0.00  0.00  1.00  0.00  0.00  0.00  0.00  0.00
  WS02001212WS02001213    1.00   0.00  0.00  0.00  0.90  0.00  0.10  0.00  0.00  0.00
  WS02001211WS02001212    1.00   0.00  0.00  0.00  1.00  0.00  0.00  0.00  0.00  0.00
  WS02003072WS02003073    1.00   0.00  0.00  0.00  0.00  0.00  0.00  1.00  0.00  0.00
  WS02003069WS02003072    1.00   0.00  0.00  0.00  1.00  0.00  0.00  0.00  0.14  0.00
  WS02003060WS02003069    1.00   0.00  0.00  0.00  0.99  0.01  0.00  0.00  0.09  0.00
  WS02003059WS02003060    1.00   0.00  0.00  0.00  1.00  0.00  0.00  0.00  0.00  0.00
  HS02004901HS02004770    1.00   0.04  0.00  0.00  0.96  0.00  0.00  0.00  0.00  0.00
  HS02004876HS02004881    1.00   0.01  0.00  0.00  0.90  0.09  0.00  0.00  0.00  0.00
  HS02004870HS02004876    1.00   0.00  0.00  0.00  0.99  0.00  0.00  0.00  0.95  0.00
  HS02004842HS02004848    1.00   0.00  0.04  0.00  0.96  0.00  0.00  0.00  0.54  0.00
  HS02004837HS02004842    1.00   0.00  0.00  0.00  1.00  0.00  0.00  0.00  0.11  0.00
  HS02004830HS02004837    1.00   0.00  0.00  0.00  1.00  0.00  0.00  0.00  0.99  0.00
  HS02004824HS02004830    1.00   0.00  0.00  0.00  1.00  0.00  0.00  0.00  0.01  0.00
  HS02004817HS02004824    1.00   0.00  0.00  0.00  1.00  0.00  0.00  0.00  0.97  0.00
  HS02004770HS02004777    1.00   0.00  0.04  0.00  0.96  0.00  0.00  0.00  0.03  0.00
  HS02004799HS02004480    1.00   0.00  0.01  0.00  0.95  0.00  0.03  0.00  0.00  0.00
  HS02004792HS02004799    1.00   0.00  0.00  0.00  1.00  0.00  0.00  0.00  0.98  0.00
  HS02004788HS02004792    1.00   0.00  0.00  0.00  1.00  0.00  0.00  0.00  0.98  0.00
  HS02004785HS02004788    1.00   0.00  0.00  0.00  1.00  0.00  0.00  0.00  0.00  0.00
  HS02004777HS02004785    1.00   0.00  0.00  0.00  1.00  0.00  0.00  0.00  0.12  0.00
  HS02004480HS02004478    1.00   0.04  0.00  0.00  0.68  0.00  0.00  0.28  0.00  0.00
  HS02004479HS02004480    1.00   0.01  0.00  0.00  0.99  0.00  0.00  0.00  0.12  0.00
  HS02004862HS02004870    1.00   0.00  0.00  0.00  1.00  0.00  0.00  0.00  0.04  0.00
  HS02004848HS02004852    1.00   0.04  0.00  0.00  0.96  0.00  0.00  0.00  0.64  0.00
  HS02004856HS02004862    1.00   0.00  0.05  0.00  0.95  0.00  0.00  0.00  0.83  0.00
  HS02004852HS02004856    1.00   0.04  0.00  0.00  0.96  0.00  0.00  0.00  0.81  0.00
  HS02004802HS02004478    1.00   0.04  0.00  0.00  0.96  0.00  0.00  0.00  0.02  0.00
  HS02004478WS02006287    1.00   0.05  0.00  0.00  0.74  0.22  0.00  0.00  0.65  0.00
  HS02004817HS02004807    1.00   0.00  0.04  0.00  0.96  0.00  0.00  0.00  0.01  0.00
  HS02004807HS02004802    1.00   0.04  0.00  0.00  0.96  0.00  0.00  0.00  0.00  0.00
  YS02001759YS02001757    1.00   0.00  0.00  0.00  1.00  0.00  0.00  0.00  0.16  0.00
  YS02001762YS02001759    1.00   0.00  0.00  0.00  1.00  0.00  0.00  0.00  0.03  0.00
  YS02001765YS02001762    1.00   0.00  0.00  0.00  1.00  0.00  0.00  0.00  0.14  0.00
  YS02001770YS02001767    1.00   0.00  0.00  0.00  1.00  0.00  0.00  0.00  0.00  0.00
  YS02001774YS02001770    1.00   0.00  0.04  0.00  0.96  0.00  0.00  0.00  0.03  0.00
  YS02001779YS02001774    1.00   0.00  0.00  0.00  1.00  0.00  0.00  0.00  0.19  0.00
  YS02001649YS02001757    1.00   0.00  0.00  0.00  1.00  0.00  0.00  0.00  0.16  0.00
  YS02001767YS02001765    1.00   0.00  0.00  0.00  1.00  0.00  0.00  0.00  0.00  0.00
  YS02006561YS02001783    1.00   0.05  0.00  0.00  0.35  0.60  0.00  0.00  0.47  0.00
  YS02001783YS02001784    1.00   0.00  0.05  0.00  0.95  0.00  0.00  0.00  0.01  0.00
  YS02001784YS02001785    1.00   0.00  0.00  0.00  1.00  0.00  0.00  0.00  0.18  0.00
  YS02001788YS02001790    1.00   0.00  0.00  0.00  0.40  0.60  0.00  0.00  0.36  0.00
  YS02001790YS02001791    1.00   0.00  0.00  0.00  0.37  0.63  0.00  0.00  0.43  0.00
  YS02001791YS02001793    1.00   0.00  0.00  0.00  0.40  0.60  0.00  0.00  0.03  0.00
  YS02001910YS02001907    1.00   0.00  0.00  0.00  0.99  0.00  0.00  0.01  0.12  0.00
  YS02001786YS02001788    1.00   0.00  0.00  0.00  0.38  0.62  0.00  0.00  0.00  0.00
  YS02001915YS02001910    1.00   0.00  0.00  0.00  0.99  0.01  0.00  0.00  0.16  0.00
  YS02001918YS02001915    1.00   0.00  0.00  0.00  0.99  0.00  0.00  0.00  0.53  0.00
  YS02001923YS02001920    1.00   0.00  0.00  0.00  1.00  0.00  0.00  0.00  0.82  0.00
  YS02001926YS02001923    1.00   0.00  0.02  0.00  0.14  0.00  0.83  0.00  0.00  0.00
  YS02001929YS02001926    1.00   0.00  0.04  0.00  0.96  0.00  0.00  0.00  0.74  0.00
  YS02001920YS02001918    1.00   0.00  0.00  0.00  1.00  0.00  0.00  0.00  0.00  0.00
  YS02001629YS02163301    1.00   0.04  0.00  0.00  0.95  0.00  0.00  0.00  0.00  0.00
  YS02001619YS02001622    1.00   0.04  0.00  0.00  0.96  0.00  0.00  0.00  0.00  0.00
  YS02001622YS02001625    1.00   0.04  0.00  0.00  0.96  0.00  0.00  0.00  0.05  0.00
  YS02001625YS02001629    1.00   0.04  0.02  0.00  0.93  0.00  0.02  0.00  0.00  0.00
  YS02163301YS02001633    1.00   0.00  0.04  0.00  0.96  0.00  0.00  0.00  0.00  0.00
  YS02163601YS02164001    1.00   0.00  0.02  0.00  0.98  0.00  0.00  0.00  0.00  0.00
  YS02164001YS02001641    1.00   0.00  0.02  0.00  0.98  0.00  0.00  0.00  0.06  0.00
  YS02001641YS02001644    1.00   0.00  0.00  0.00  1.00  0.00  0.00  0.00  0.00  0.00
  YS02001647YS02001649    1.00   0.00  0.05  0.00  0.95  0.00  0.00  0.00  0.01  0.00
  YS02006553YS02006556    1.00   0.01  0.00  0.00  0.99  0.00  0.00  0.00  0.03  0.00
  YS02006556YS02006558    1.00   0.00  0.00  0.00  1.00  0.00  0.00  0.00  0.00  0.00
  YSB6556YSB1171          1.00   0.01  0.02  0.00  0.96  0.00  0.00  0.00  0.00  0.00
  YS02001907YS02006553    1.00   0.00  0.01  0.00  0.99  0.00  0.00  0.00  0.00  0.00
  YS02006558YS02006561    1.00   0.05  0.00  0.00  0.14  0.80  0.00  0.00  0.47  0.00
  YS02001633YS02163601    1.00   0.00  0.00  0.00  1.00  0.00  0.00  0.00  0.15  0.00
  YS02001644YS02001647    1.00   0.00  0.05  0.00  0.95  0.00  0.00  0.00  0.00  0.00
  YS02001745YS02001748    1.00   0.00  0.00  0.00  0.90  0.01  0.00  0.09  0.04  0.00
  YS02001748YS02001751    1.00   0.00  0.00  0.00  0.96  0.04  0.00  0.00  0.15  0.00
  YS02001751YS02001754    1.00   0.00  0.00  0.00  0.94  0.00  0.00  0.06  0.02  0.00
  YS02001754YS02001757    1.00   0.00  0.00  0.00  1.00  0.00  0.00  0.00  0.18  0.00
  YS02001882YS02001884    1.00   0.04  0.00  0.00  0.96  0.00  0.00  0.00  0.00  0.00
  YS02001884YS02001887    1.00   0.02  0.01  0.00  0.97  0.00  0.00  0.00  0.00  0.00
  YS02001890YS02001895    1.00   0.00  0.04  0.00  0.95  0.00  0.00  0.00  0.00  0.00
  YS02001895YS02001898    1.00   0.05  0.00  0.00  0.94  0.00  0.01  0.00  0.00  0.00
  YS02001898YS02001901    1.00   0.05  0.00  0.00  0.95  0.00  0.00  0.00  0.01  0.00
  YS02001901YS02001904    1.00   0.05  0.00  0.00  0.95  0.00  0.00  0.00  0.00  0.00
  YS02001904YS02001907    1.00   0.00  0.05  0.00  0.95  0.00  0.00  0.00  0.00  0.00
  YS02001887YS02001890    1.00   0.00  0.00  0.00  0.99  0.00  0.01  0.00  0.00  0.00
  YS02001652YS02001649    1.00   0.00  0.00  0.00  1.00  0.00  0.00  0.00  0.17  0.00
  YS02001655YS02001652    1.00   0.00  0.00  0.00  0.94  0.00  0.00  0.06  0.02  0.00
  YS02001658YS02001655    1.00   0.00  0.04  0.00  0.93  0.03  0.00  0.00  0.10  0.00
  YS02001661YS02001658    1.00   0.04  0.00  0.00  0.90  0.06  0.00  0.00  0.11  0.00
  YS02001664YS02001661    1.00   0.04  0.00  0.00  0.92  0.05  0.00  0.00  0.20  0.00
  YSB1154YSB6556          1.00   0.04  0.00  0.00  0.96  0.00  0.00  0.00  0.02  0.00
  YSB1174YSB1171          1.00   0.02  0.01  0.00  0.97  0.00  0.00  0.00  0.00  0.00
  YSB1171HS02004479       1.00   0.01  0.00  0.00  0.98  0.00  0.00  0.00  0.10  0.00
  HS02004881HS02006253    1.00   0.02  0.00  0.00  0.56  0.01  0.00  0.41  0.38  0.00
  YS02001793JiankangQianchi    1.00   0.00  0.00  0.00  0.69  0.31  0.00  0.00  0.39  0.00
  YS02001757CaochengTiaoxuchi    1.00   0.00  0.07  0.00  0.93  0.00  0.00  0.00  0.00  0.00
  WSF200WS02003060        1.00   0.00  0.01  0.00  0.99  0.00  0.00  0.00  0.51  0.00
  1                       1.00   0.00  0.00  0.00  0.00  1.00  0.00  0.00  0.48  0.00
  
  
  *************************
  Conduit Surcharge Summary
  *************************
  
  ----------------------------------------------------------------------------
                                                           Hours        Hours 
                         --------- Hours Full --------   Above Full   Capacity
  Conduit                Both Ends  Upstream  Dnstream   Normal Flow   Limited
  ----------------------------------------------------------------------------
  WS02006229WS02006228        2.97      3.08      2.97      4.61         2.97
  WS02006256WS02006235        5.52      5.52      6.66      4.31         0.01
  WS02006253WS02006251        1.22      1.23      1.26      0.01         0.02
  WS02006252WS02006251        1.14      1.14      1.83      1.35         0.01
  WS02006251WS02006249        1.24      1.24      1.29      0.73         0.53
  WS02006249WS02006248        1.25      1.25      1.29      2.20         0.01
  WS02006248WS02006247        1.30      1.30      1.40      0.01         0.01
  WS02006247WS02006245        1.39      1.43      1.39      2.74         1.32
  WS02006245WS02006243        1.43      1.43      1.51      0.44         0.40
  WS02006243WS02006242        1.60      1.60      1.89      0.01         0.01
  WS02006242WS02006240        1.80      1.80      2.00      1.42         0.01
  WS02006240WS02006239        1.82      1.83      1.93      0.76         0.54
  WS02006239WS02006238        2.15      2.16      2.41      0.81         0.61
  WS02006238WS02006235        2.38      2.38      2.58      0.01         0.01
  WS02006235WS02006234        1.99      1.99      2.30      5.46         0.01
  WS02006234WS02006232        2.16      2.16      2.90      0.42         0.43
  WS02006232WS02006231        1.28      1.28      2.90      0.53         0.01
  WS02006231WS02006230        0.94      0.94      1.36      5.54         0.01
  WS02006230WS02006229        3.79      4.27      3.79      5.73         3.79
[...]
  YS02001779YS02001774        5.56      5.56      5.74      0.01         0.01
  YS02001649YS02001757        5.76      5.76      5.86      0.01         0.01
  YS02001767YS02001765        5.70      5.70      5.72      0.01         0.01
  YS02006561YS02001783        0.96      0.96      1.19      0.01         0.01
  YS02001783YS02001784        1.15      1.19      1.15      1.57         1.15
  YS02001784YS02001785        1.08      1.15      1.08      2.51         1.08
  YS02001788YS02001790        1.03      1.03      1.93      0.01         0.01
  YS02001790YS02001791        1.92      1.93      2.10      1.08         1.06
  YS02001791YS02001793        2.10      2.10      2.56      0.01         0.01
  YS02001910YS02001907        1.25      1.25      1.91      0.01         0.01
  YS02001786YS02001788        1.03      1.08      1.03      2.09         1.03
  YS02001915YS02001910        1.07      1.07      1.25      0.01         0.01
  YS02001918YS02001915        0.91      0.91      1.07      0.01         0.01
  YS02001923YS02001920        0.75      0.75      0.94      0.01         0.01
  YS02001926YS02001923        0.01      0.01      0.01      0.01         0.01
  YS02001929YS02001926        0.01      0.01      0.01      0.01         0.01
  YS02001920YS02001918        0.91      0.91      0.94      0.01         0.01
  YS02001629YS02163301        5.67      5.67      5.69      0.01         0.01
  YS02001619YS02001622        5.37      5.37      5.41      0.01         0.01
  YS02001622YS02001625        5.41      5.41      5.64      0.01         0.01
  YS02001625YS02001629        5.38      5.38      5.64      0.01         0.01
  YS02163301YS02001633        5.69      5.69      5.72      0.01         0.01
  YS02163601YS02164001        5.72      5.72      5.75      0.01         0.01
  YS02164001YS02001641        5.72      5.72      5.73      0.01         0.03
  YS02001641YS02001644        5.73      5.73      5.73      1.72         2.07
  YS02001647YS02001649        5.62      5.62      5.76      0.01         0.01
  YS02006553YS02006556        1.48      1.48      1.97      0.01         0.01
  YS02006556YS02006558        1.66      1.66      2.03      0.01         0.01
  YSB6556YSB1171              0.01      0.01      0.07      0.01         0.01
  YS02001907YS02006553        2.55      2.55      2.77      0.01         0.01
  YS02006558YS02006561        1.05      1.44      1.05      2.35         1.05
  YS02001633YS02163601        5.71      5.71      5.75      0.01         0.01
  YS02001644YS02001647        5.62      5.62      5.73      0.01         0.01
  YS02001745YS02001748        0.01      0.01      5.22      0.01         0.01
  YS02001748YS02001751        5.26      5.26      5.38      0.01         0.01
  YS02001751YS02001754        5.38      5.38      5.58      0.01         0.01
  YS02001754YS02001757        5.62      5.62      5.86      0.01         0.01
  YS02001882YS02001884        1.07      1.07      1.10      0.01         0.01
  YS02001884YS02001887        1.15      1.15      1.17      0.01         0.01
  YS02001890YS02001895        1.05      1.05      1.27      0.01         0.01
  YS02001895YS02001898        1.04      1.04      1.05      0.01         0.01
  YS02001898YS02001901        1.06      1.06      1.14      0.01         0.01
  YS02001901YS02001904        1.11      1.11      1.14      0.01         0.01
  YS02001904YS02001907        1.11      1.11      1.98      0.01         0.01
  YS02001887YS02001890        1.20      1.20      1.23      0.16         0.01
  YS02001652YS02001649        5.63      5.63      5.76      0.01         0.01
  YS02001655YS02001652        5.39      5.39      5.61      0.01         0.01
  YS02001658YS02001655        5.25      5.25      5.39      0.01         0.01
  YS02001661YS02001658        0.06      0.06      5.25      0.01         0.01
  YS02001664YS02001661        0.01      0.01      1.22      0.01         0.01
  HS02004881HS02006253        0.01      0.01      0.63      0.01         0.01
  YS02001793JiankangQianchi        2.44      2.44      4.07      0.01         0.01
  YS02001757CaochengTiaoxuchi        5.11      5.11      5.86      0.01         0.01
  
  
  ***************
  Pumping Summary
  ***************
  
  ---------------------------------------------------------------------------------------------------------
                                                  Min       Avg       Max     Total     Power    % Time Off
                        Percent   Number of      Flow      Flow      Flow    Volume     Usage    Pump Curve
  Pump                 Utilized   Start-Ups       LPS       LPS       LPS  10^6 ltr     Kw-hr    Low   High
  ---------------------------------------------------------------------------------------------------------
  CC-Pump-1               46.80           4      0.00    144.59    200.00     1.860      1.85    0.0    0.0
  CC-Pump-2               29.78           4      0.00    106.02    200.00     1.020      1.26    0.0    0.0
  JK-Pump-1               61.70           5      0.00    225.64    300.00     3.761     53.41    0.0    0.0
  JK-Pump-2               55.33           5      0.00    398.81    683.00     6.213     86.69    0.0   95.3
  XR-Pump-1              100.00           1      0.00     95.00     95.00     2.679     26.83    0.0    0.0
  XR-Pump-2               95.74           3      0.00     92.52     95.00     2.394     20.84    0.0    0.0
  XR-Pump-3               95.74           3      0.00     92.52     95.00     2.394     20.84    0.0    0.0
  XR-Pump-4               95.74           3      0.00     92.52     95.00     2.394     20.84    0.0    0.0
  
  
  ***************************
  Link Pollutant Load Summary
  ***************************
  
  ------------------------------------------------------------------------------------------
                                 COD            SS            TN            TP         NH4-N
  Link                            kg            kg            kg            kg            kg
  ------------------------------------------------------------------------------------------
  WS02003066WSF200           803.148      1500.894        21.311         1.882        11.256
  WS02006287WS02006284       319.460       608.085        10.313         1.015         5.678
  WS02006284WS02006280       319.946       608.886        10.359         1.021         5.707
  WS02006280WS02006229       319.895       608.793        10.357         1.020         5.705
  WS02006229WS02006228       808.315      1509.842        20.906         1.814        10.967
  WS02006256WS02006235       224.577       413.667         4.964         0.386         2.510
  WS02006253WS02006251        63.491       124.492         1.400         0.105         0.695
  WS02006252WS02006251       240.929       437.856         5.043         0.364         2.479
  WS02006251WS02006249       293.205       541.963         6.222         0.455         3.068
  WS02006249WS02006248       278.667       514.072         5.920         0.433         2.920
  WS02006248WS02006247       277.565       511.977         5.899         0.432         2.910
  WS02006247WS02006245       277.031       511.093         5.886         0.431         2.903
  WS02006245WS02006243       276.757       510.863         5.874         0.429         2.896
  WS02006243WS02006242       277.356       512.223         5.887         0.430         2.903
  WS02006242WS02006240       277.053       511.798         5.877         0.430         2.898
  WS02006240WS02006239       277.587       512.807         5.886         0.430         2.902
  WS02006239WS02006238       279.102       515.341         5.929         0.434         2.926
  WS02006238WS02006235       279.899       516.556         5.952         0.436         2.938
  WS02006235WS02006234       494.065       911.028        10.685         0.804         5.332
  WS02006234WS02006232       493.085       909.267        10.668         0.803         5.324
  WS02006232WS02006231       491.928       907.195        10.642         0.802         5.311
  WS02006231WS02006230       490.639       904.879        10.615         0.800         5.298
  WS02006230WS02006229       489.642       903.206        10.587         0.797         5.283
  WS02006228WS02006109       806.901      1507.319        20.873         1.811        10.951
  WS02006116WS02004401       817.107      1525.805        21.638         1.908        11.422
  WS02006115WS02006116       818.901      1528.999        21.681         1.911        11.444
  WS02006113WS02006111       811.401      1513.871        21.576         1.904        11.401
  WS02006112WS02006115       820.617      1531.996        21.737         1.916        11.475
  WS02006111WS02006112       810.735      1512.672        21.562         1.902        11.394
  WS02006110WS02006113       812.303      1515.436        21.606         1.906        11.417
  WS02006109WS02006110       813.848      1518.124        21.659         1.911        11.447
  WS02004411WS02004412       806.451      1506.659        21.433         1.895        11.325
  WS02004401WS02004402       815.510      1523.003        21.588         1.903        11.395
  WS02004413WS02003067       803.814      1502.119        21.326         1.883        11.264
  WS02004412WS02004413       805.293      1504.618        21.399         1.891        11.307
  WS02004410WS02004411       807.533      1508.593        21.461         1.897        11.340
  WS02004409WS02004410       808.657      1510.582        21.495         1.900        11.358
  WS02004407WS02004409       809.709      1512.477        21.518         1.902        11.369
  WS02004406WS02004407       810.174      1513.354        21.521         1.901        11.370
  WS02004405WS02004406       811.982      1516.490        21.598         1.910        11.414
  WS02004404WS02004405       813.142      1518.645        21.594         1.907        11.408
  WS02004403WS02004404       812.842      1518.300        21.511         1.896        11.353
  WS02004402WS02004403       814.033      1520.381        21.550         1.900        11.375
  WS02004139WS02001211      1376.302      2285.347       111.697        13.634        68.850
  WS02004138WS02004139      1382.634      2295.926       112.185        13.693        69.149
  WS02003067WS02003066       803.342      1501.233        21.318         1.883        11.260
  WS02001213WS02003059      1409.001      2336.683       115.098        14.063        70.988
  WS02001212WS02001213      1418.202      2351.931       115.843        14.154        71.447
  WS02001211WS02001212      1420.475      2355.648       116.038        14.178        71.568
  WS02003072WS02003073      2312.386      3996.847       146.378        17.197        88.489
  WS02003069WS02003072      2317.199      4004.680       146.780        17.246        88.738
  WS02003060WS02003069      2319.721      4009.016       146.926        17.263        88.825
  WS02003059WS02003060      1405.710      2331.116       114.863        14.035        70.844
  HS02004901HS02004770        13.092        25.469         0.248         0.019         0.116
  HS02004876HS02004881        45.513        90.342         0.999         0.073         0.491
  HS02004870HS02004876        34.380        68.101         0.798         0.060         0.395
  HS02004842HS02004848         6.457        12.344         0.134         0.009         0.062
  HS02004837HS02004842        11.055        19.634         0.603         0.068         0.356
  HS02004830HS02004837        70.294       122.720         4.643         0.552         2.827
  HS02004824HS02004830        71.065       123.975         4.715         0.561         2.871
  HS02004817HS02004824        97.158       176.398         5.254         0.596         3.134
  HS02004770HS02004777        49.658        97.703         1.021         0.069         0.472
  HS02004799HS02004480       162.311       310.813         4.263         0.379         2.209
  HS02004792HS02004799       147.264       280.103         4.028         0.367         2.105
  HS02004788HS02004792        82.812       157.678         2.666         0.255         1.440
  HS02004785HS02004788        51.118       100.043         1.172         0.089         0.567
  HS02004777HS02004785        50.443        98.936         1.112         0.081         0.530
  HS02004480HS02004478       204.801       395.149         4.971         0.429         2.543
  HS02004479HS02004480        46.119        90.098         1.036         0.091         0.538
  HS02004862HS02004870        25.798        50.337         0.628         0.050         0.314
  HS02004848HS02004852        10.251        19.884         0.210         0.014         0.097
  HS02004856HS02004862        17.524        34.748         0.350         0.023         0.164
  HS02004852HS02004856        10.255        19.888         0.210         0.014         0.097
  HS02004802HS02004478       115.333       214.038         5.397         0.592         3.169
  HS02004478WS02006287       319.670       608.448        10.330         1.017         5.688
  HS02004817HS02004807        95.854       174.306         5.130         0.581         3.057
  HS02004807HS02004802       115.591       214.441         5.429         0.596         3.189
  YS02001759YS02001757       309.077       567.259         6.177         0.430         3.020
  YS02001762YS02001759       191.402       353.456         3.957         0.279         1.951
  YS02001765YS02001762       192.767       356.862         4.005         0.284         1.977
  YS02001770YS02001767       195.526       364.343         3.900         0.263         1.897
  YS02001774YS02001770       306.607       593.117         5.907         0.394         2.856
  YS02001779YS02001774       305.922       591.824         5.988         0.407         2.913
  YS02001649YS02001757       399.308       724.723         8.012         0.549         3.855
  YS02001767YS02001765       194.520       360.940         4.053         0.287         2.003
  YS02006561YS02001783      1021.015      1892.050        21.466         1.606        10.692
  YS02001783YS02001784      1020.944      1891.961        21.462         1.606        10.690
  YS02001784YS02001785      1028.309      1903.789        22.176         1.695        11.136
  YS02001788YS02001790      1028.975      1904.902        22.250         1.705        11.183
  YS02001790YS02001791      1030.034      1906.645        22.351         1.717        11.246
  YS02001791YS02001793      1029.999      1906.593        22.348         1.717        11.244
  YS02001910YS02001907       392.247       723.139         9.528         0.736         4.899
  YS02001786YS02001788      1028.556      1904.226        22.205         1.699        11.154
  YS02001915YS02001910       392.270       723.160         9.479         0.729         4.866
  YS02001918YS02001915       192.134       339.346         5.372         0.492         2.902
  YS02001923YS02001920       168.986       300.873         3.366         0.245         1.657
  YS02001926YS02001923       167.108       297.629         3.273         0.235         1.602
  YS02001929YS02001926       164.767       293.654         3.129         0.218         1.514
  YS02001920YS02001918       189.866       334.601         5.306         0.486         2.867
  YS02001629YS02163301        96.129       169.983         2.029         0.131         0.946
  YS02001619YS02001622       175.884       321.154         3.602         0.236         1.684
  YS02001622YS02001625       174.698       319.270         3.573         0.234         1.671
  YS02001625YS02001629        97.215       171.759         2.053         0.132         0.957
  YS02163301YS02001633        96.489       170.849         2.031         0.132         0.949
  YS02163601YS02164001       405.808       733.314         7.900         0.562         3.784
  YS02164001YS02001641       405.281       732.423         7.880         0.560         3.773
  YS02001641YS02001644       405.357       732.473         7.876         0.560         3.770
  YS02001647YS02001649       506.910       931.402        10.061         0.695         4.808
  YS02006553YS02006556       686.801      1261.906        14.834         1.140         7.476
  YS02006556YS02006558       686.891      1262.066        14.808         1.136         7.458
  YSB6556YSB1171              26.518        51.961         0.537         0.045         0.271
  YS02001907YS02006553       686.824      1261.964        14.841         1.141         7.480
  YS02006558YS02006561      1020.956      1891.926        21.464         1.606        10.691
  YS02001633YS02163601       406.513       734.405         7.881         0.558         3.768
  YS02001644YS02001647       513.038       942.420        10.161         0.702         4.854
  YS02001745YS02001748       248.886       465.634         5.387         0.367         2.663
  YS02001748YS02001751       247.426       462.768         5.460         0.380         2.718
  YS02001751YS02001754       246.461       461.177         5.445         0.379         2.712
  YS02001754YS02001757       247.220       462.314         5.610         0.402         2.819
  YS02001882YS02001884         3.231         5.596         0.065         0.005         0.033
  YS02001884YS02001887         6.621        11.725         0.131         0.010         0.065
  YS02001890YS02001895       451.102       846.706         8.304         0.625         4.051
  YS02001895YS02001898       450.988       846.589         8.299         0.624         4.047
  YS02001898YS02001901       450.813       846.295         8.295         0.624         4.045
  YS02001901YS02001904       450.734       846.218         8.302         0.625         4.051
  YS02001904YS02001907       451.033       846.705         8.357         0.632         4.086
  YS02001887YS02001890       468.352       880.920         8.647         0.653         4.223
  YS02001652YS02001649       207.255       384.601         4.178         0.300         1.959
  YS02001655YS02001652       207.753       385.420         4.191         0.301         1.965
  YS02001658YS02001655       207.122       384.423         4.100         0.290         1.907
  YS02001661YS02001658       210.358       390.242         4.165         0.294         1.937
  YS02001664YS02001661       220.295       405.948         4.400         0.310         2.044
  YSB1154YSB6556              26.082        51.266         0.486         0.038         0.239
  YSB1174YSB1171              18.019        35.558         0.361         0.029         0.180
  YSB1171HS02004479           46.084        90.044         1.039         0.092         0.540
  HS02004881HS02006253        51.675       103.020         1.110         0.080         0.544
  YS02001793JiankangQianchi      1030.641      1907.581        22.391         1.722        11.271
  YS02001757CaochengTiaoxuchi       536.492       967.601        11.324         0.814         5.566
  WSF200WS02003060           803.010      1500.589        21.318         1.883        11.261
  1                         2318.753      4006.195       147.195        17.302        89.008
  CC-Pump-1                  156.596       284.835         3.274         0.237         1.609
  CC-Pump-2                   84.163       152.686         1.764         0.127         0.867
  JK-Pump-1                  276.041       510.997         6.056         0.469         3.057
  JK-Pump-2                  538.473      1011.765        11.150         0.835         5.545
  XR-Pump-1                  393.491       650.559        32.616         3.994        20.142
  XR-Pump-2                  330.928       550.463        26.623         3.245        16.397
  XR-Pump-3                  330.928       550.463        26.623         3.245        16.397
  XR-Pump-4                  330.928       550.463        26.623         3.245        16.397
  

  Analysis begun on:  Thu Jul 15 23:36:44 2021
  Analysis ended on:  Thu Jul 15 23:36:47 2021
  Total elapsed time: 00:00:03