
  EPA STORM WATER MANAGEMENT MODEL - VERSION 5.1 (Build 5.3.0.dev0)
  --------------------------------------------------------------

  WARNING 04: minimum elevation drop used for Conduit WS02004404WS02004405
  WARNING 03: negative offset ignored for Link YS02001904YS02001907
  
  *********************************************************
  NOTE: The summary statistics displayed in this report are
  based on results found at every computational time step,  
  not just on results from each reporting time step.
  *********************************************************
  
  ****************
  Analysis Options
  ****************
  Flow Units ............... LPS
  Process Models:
    Rainfall/Runoff ........ YES
    RDII ................... NO
    Snowmelt ............... NO
    Groundwater ............ NO
    Flow Routing ........... YES
    Ponding Allowed ........ NO
    Water Quality .......... YES
  Infiltration Method ...... HORTON
  Flow Routing Method ...... DYNWAVE
  Surcharge Method ......... EXTRAN
  Starting Date ............ 08/28/2015 08:00:00
  Ending Date .............. 08/28/2015 15:50:00
  Antecedent Dry Days ...... 8.0
  Report Time Step ......... 00:01:00
  Wet Time Step ............ 00:01:00
  Dry Time Step ............ 00:01:00
  Routing Time Step ........ 5.00 sec
  Variable Time Step ....... YES
  Maximum Trials ........... 8
  Number of Threads ........ 4
  Head Tolerance ........... 0.001500 m
  
  
  **************************        Volume         Depth
  Runoff Quantity Continuity     hectare-m            mm
  **************************     ---------       -------
  Total Precipitation ......         6.144        13.452
  Evaporation Loss .........         0.000         0.000
  Infiltration Loss ........         1.064         2.328
  Surface Runoff ...........         4.147         9.079
  Final Storage ............         0.935         2.047
  Continuity Error (%) .....        -0.020
  
  
  **************************           COD            SS            TN            TP         NH4-N
  Runoff Quality Continuity             kg            kg            kg            kg            kg
  **************************    ----------    ----------    ----------    ----------    ----------
  Initial Buildup ..........     41378.656     70582.865      1804.177       168.684      1032.807
  Surface Buildup ..........        21.799        40.924         2.400         0.218         1.395
  Wet Deposition ...........         0.000         0.000         0.000         0.000         0.000
  Sweeping Removal .........         0.000         0.000         0.000         0.000         0.000
  Infiltration Loss ........        97.311       184.943         1.849         0.130         0.881
  BMP Removal ..............         0.000         0.000         0.000         0.000         0.000
  Surface Runoff ...........      3769.819      7064.251        72.781         4.964        34.599
  Remaining Buildup ........     37531.916     63371.884      1731.919       163.806       998.709
  Continuity Error (%) .....         0.003         0.004         0.002         0.001         0.001
  
  
  **************************        Volume        Volume
  Flow Routing Continuity        hectare-m      10^6 ltr
  **************************     ---------     ---------
  Dry Weather Inflow .......         0.616         6.165
  Wet Weather Inflow .......         4.145        41.452
  Groundwater Inflow .......         0.000         0.000
  RDII Inflow ..............         0.000         0.000
  External Inflow ..........         0.102         1.024
  External Outflow .........         1.833        18.329
  Flooding Loss ............         2.585        25.849
  Evaporation Loss .........         0.000         0.000
  Exfiltration Loss ........         0.000         0.000
  Initial Stored Volume ....         0.076         0.761
  Final Stored Volume ......         0.642         6.419
  Continuity Error (%) .....        -2.423
  
  
  **************************           COD            SS            TN            TP         NH4-N
  Quality Routing Continuity            kg            kg            kg            kg            kg
  **************************    ----------    ----------    ----------    ----------    ----------
  Dry Weather Inflow .......      1541.201      2465.922       147.955        18.494        92.472
  Wet Weather Inflow .......      3769.053      7062.960        72.764         4.963        34.592
  Groundwater Inflow .......         0.000         0.000         0.000         0.000         0.000
  RDII Inflow ..............         0.000         0.000         0.000         0.000         0.000
  External Inflow ..........       183.418       293.469        17.608         2.201        11.005
  External Outflow .........      2265.298      3912.722       145.400        17.129        88.015
  Flooding Loss ............      2538.353      4716.626        65.170         5.663        34.223
  Exfiltration Loss ........         0.000         0.000         0.000         0.000         0.000
  Mass Reacted .............         0.000         0.000         0.000         0.000         0.000
  Initial Stored Mass ......         0.000         0.000         0.000         0.000         0.000
  Final Stored Mass ........       555.296       962.823        24.339         2.593        14.077
  Continuity Error (%) .....         2.452         2.343         1.434         1.067         1.270
  
  
  *************************
  Highest Continuity Errors
  *************************
  Node HS02004842 (13.41%)
  Node JK-storage (-11.41%)
  Node YS02001884 (11.19%)
  Node HS02004817 (2.53%)
  Node YSB1171 (2.46%)
  
  
  ***************************
  Time-Step Critical Elements
  ***************************
  Link WS02006252WS02006251 (52.60%)
  Link WS02006280WS02006229 (12.14%)
  Link WS02006238WS02006235 (7.67%)
  Link YS02001793JiankangQianchi (7.52%)
  Link YS02006556YS02006558 (5.99%)
  
  
  ********************************
  Highest Flow Instability Indexes
  ********************************
  Link WS02006113WS02006111 (46)
  Link YS02163601YS02164001 (33)
  Link YS02163301YS02001633 (33)
  Link YS02001629YS02163301 (32)
  Link YS02001619YS02001622 (31)
  
  
  *************************
  Routing Time Step Summary
  *************************
  Minimum Time Step           :     0.50 sec
  Average Time Step           :     1.42 sec
  Maximum Time Step           :     5.00 sec
  Percent in Steady State     :    -0.00
  Average Iterations per Step :     4.09
  Percent Not Converging      :    18.01
  
  
  ***************************
  Subcatchment Runoff Summary
  ***************************
  
  ------------------------------------------------------------------------------------------------------------------------------
                            Total      Total      Total      Total     Imperv       Perv      Total       Total     Peak  Runoff
                           Precip      Runon       Evap      Infil     Runoff     Runoff     Runoff      Runoff   Runoff   Coeff
  Subcatchment                 mm         mm         mm         mm         mm         mm         mm    10^6 ltr      LPS
  ------------------------------------------------------------------------------------------------------------------------------
  sub0                      13.45       0.00       0.00       0.63      12.47       0.31      12.77        0.01     3.75   0.950
  sub1                      13.45       0.00       0.00       1.12      11.88       0.36      12.24        0.08    25.66   0.910
  sub2                      13.45       0.00       0.00       4.44       8.39       0.53       8.92        0.08    25.29   0.663
  sub3                      13.45       0.00       0.00       4.56       8.35       0.42       8.77        0.20    55.75   0.652
  sub4                      13.45       0.00       0.00       1.22      11.71       0.26      11.97        0.25    65.52   0.890
  sub5                      13.45       0.00       0.00       0.68      12.41       0.26      12.67        0.14    44.76   0.942
  sub7                      13.45       0.00       0.00       0.86      12.18       0.35      12.53        0.04    14.26   0.931
  sub8                      13.45       0.00       0.00       0.87      12.17       0.34      12.50        0.08    26.26   0.930
  sub9                      13.45       0.00       0.00       0.88      12.17       0.33      12.50        0.06    19.64   0.929
  sub10                     13.45       0.00       0.00       0.78      12.29       0.29      12.58        0.14    44.00   0.935
  sub11                     13.45       0.00       0.00       0.77      12.30       0.31      12.61        0.15    48.45   0.938
  sub12                     13.45       0.00       0.00       1.25      11.66       0.50      12.16        0.11    38.10   0.904
  sub14                     13.45       0.00       0.00       0.88      12.16       0.33      12.49        0.12    38.67   0.929
  sub15                     13.45       0.00       0.00       3.37       9.35       0.66      10.01        0.17    57.01   0.744
  sub16                     13.45       0.00       0.00       3.56       8.97       0.88       9.85        0.10    37.63   0.732
  sub17                     13.45       0.00       0.00       3.47       9.10       0.84       9.94        0.09    30.67   0.739
  sub22                     13.45       0.00       0.00       4.98       7.63       0.81       8.43        0.53   184.54   0.627
  sub23                     13.45       0.00       0.00       4.17       8.43       0.81       9.24        0.44   154.22   0.687
  sub60                     13.45       0.00       0.00       1.53       9.85       0.09       9.93        3.01   438.14   0.738
  sub61                     13.45       0.00       0.00       2.16       9.95       0.12      10.07        3.11   536.45   0.749
  sub62                     13.45       0.00       0.00       0.98      10.84       0.10      10.94        3.36   552.35   0.813
  sub63                     13.45       0.00       0.00       3.77       8.69       0.14       8.83        2.67   492.63   0.656
  sub64                     13.45       0.00       0.00       1.93       9.45       0.09       9.54        2.90   416.72   0.709
  sub65                     13.45       0.00       0.00       1.67       9.61       0.08       9.70        2.98   423.09   0.721
  sub66                     13.45       0.00       0.00       3.81       8.10       0.09       8.18        2.51   380.66   0.608
  sub67                     13.45       0.00       0.00       0.95      11.38       0.13      11.51        3.55   679.52   0.856
  sub68                     13.45       0.00       0.00       1.75      10.45       0.13      10.59        3.26   586.26   0.787
  sub69                     13.45       0.00       0.00       1.83      10.79       0.19      10.98        2.57   544.72   0.816
  sub70                     13.45      11.20       0.00       7.51      14.65       0.88      15.52        3.55   494.81   0.630
  sub71                     13.45       0.00       0.00       0.99      10.58       0.09      10.67        2.52   389.24   0.793
  sub72                     13.45       0.00       0.00       0.89       8.56       0.05       8.61        1.75   189.18   0.640
  1                         13.45      15.11       0.00       1.37      16.56       4.63      21.19        4.98   484.42   0.742
  2                         13.45       0.00       0.00       3.02       3.21       1.96       5.17        2.07   340.45   0.384
  
  
  ****************************
  Subcatchment Washoff Summary
  ****************************
  
  ------------------------------------------------------------------------------------------
                                 COD            SS            TN            TP         NH4-N
  Subcatchment                    kg            kg            kg            kg            kg
  ------------------------------------------------------------------------------------------
  sub0                         2.670         5.197         0.046         0.004         0.022
  sub1                        11.241        22.423         0.210         0.015         0.101
  sub2                         6.894        13.384         0.145         0.010         0.067
  sub3                        16.924        32.573         0.350         0.024         0.161
  sub4                        25.772        51.904         0.510         0.031         0.245
  sub5                        25.778        50.682         0.460         0.035         0.223
  sub7                         5.751        11.638         0.108         0.007         0.052
  sub8                         8.581        17.755         0.171         0.010         0.082
  sub9                         7.353        15.005         0.142         0.009         0.068
  sub10                       21.202        42.223         0.389         0.028         0.188
  sub11                       20.657        41.614         0.386         0.026         0.187
  sub12                       17.724        35.094         0.321         0.024         0.155
  sub14                       15.732        31.800         0.298         0.020         0.144
  sub15                       20.231        39.321         0.389         0.028         0.182
  sub16                       13.129        25.518         0.249         0.019         0.117
  sub17                       12.049        23.208         0.222         0.017         0.105
  sub22                       62.582       119.432         1.186         0.090         0.554
  sub23                       36.683        72.439         0.776         0.051         0.357
  sub60                      243.520       456.962         4.842         0.298         2.321
  sub61                      302.151       564.434         5.627         0.386         2.710
  sub62                      313.722       596.076         6.119         0.388         2.938
  sub63                      223.275       410.850         4.468         0.314         2.075
  sub64                      305.877       553.773         5.626         0.410         2.687
  sub65                      313.037       569.066         5.795         0.415         2.772
  sub66                      176.068       321.340         3.608         0.236         1.687
  sub67                      466.222       877.505         8.365         0.616         4.045
  sub68                      332.037       626.413         6.347         0.429         3.034
  sub69                      298.258       568.561         5.590         0.393         2.674
  sub70                      502.897       962.303        10.037         0.699         4.710
  sub71                      206.745       396.330         4.242         0.246         2.030
  sub72                      164.385       293.107         3.069         0.210         1.476
  1                          349.075       671.606         7.102         0.495         3.297
  2                           42.749        75.577         1.214         0.073         0.518
  ------------------------------------------------------------------------------------------
  System                    4570.974      8595.115        88.408         6.057        41.983
  
  
  ******************
  Node Depth Summary
  ******************
  
  ---------------------------------------------------------------------------------
                                 Average  Maximum  Maximum  Time of Max    Reported
                                   Depth    Depth      HGL   Occurrence   Max Depth
  Node                 Type       Meters   Meters   Meters  days hr:min      Meters
  ---------------------------------------------------------------------------------
  WS02001211           JUNCTION     0.77     0.85     5.68     0  03:07        0.85
  WS02001212           JUNCTION     0.47     0.58     5.64     0  03:07        0.58
  WS02001213           JUNCTION     0.71     0.85     5.61     0  03:06        0.85
  WS02003069           JUNCTION     0.50     0.72     5.30     0  03:05        0.72
  WS02003072           JUNCTION     0.56     0.76     5.13     0  03:06        0.76
  WS02003073           JUNCTION     0.34     0.48     4.54     0  03:06        0.48
  WS02003060           JUNCTION     0.44     0.63     5.56     0  03:05        0.63
  WS02003066           JUNCTION     0.23     0.39     5.94     0  03:04        0.39
  WS02003059           JUNCTION     0.76     0.91     5.59     0  03:05        0.91
  WS02003067           JUNCTION     0.57     0.82     6.14     0  03:04        0.82
  WS02004401           JUNCTION     0.69     1.25     7.25     0  03:01        1.23
  WS02004402           JUNCTION     0.72     1.23     7.19     0  03:01        1.22
  WS02004403           JUNCTION     0.74     1.21     7.14     0  03:01        1.19
  WS02004404           JUNCTION     0.81     1.25     7.10     0  03:01        1.24
  WS02004406           JUNCTION     0.81     1.18     7.01     0  03:01        1.16
  WS02004409           JUNCTION     0.50     0.96     6.73     0  03:03        0.96
  WS02004410           JUNCTION     0.52     0.95     6.67     0  03:03        0.95
  WS02004411           JUNCTION     0.53     0.93     6.61     0  03:04        0.93
  WS02004412           JUNCTION     0.55     0.91     6.55     0  03:03        0.91
  WS02004413           JUNCTION     0.70     1.02     6.49     0  03:04        1.02
  WS02004405           JUNCTION     0.80     1.22     7.07     0  03:01        1.21
  WS02006109           JUNCTION     0.79     1.67     8.29     0  03:02        1.66
  WS02006110           JUNCTION     0.77     1.46     8.05     0  03:02        1.45
  WS02006111           JUNCTION     0.24     0.90     7.61     0  03:01        0.89
  WS02006112           JUNCTION     0.87     1.58     7.46     0  03:01        1.55
  WS02006113           JUNCTION     0.36     0.94     7.83     0  03:02        0.93
  WS02006115           JUNCTION     0.59     1.24     7.38     0  03:01        1.21
  WS02006116           JUNCTION     0.67     1.28     7.32     0  03:01        1.26
  WS02006230           JUNCTION     0.79     1.89     8.63     0  03:02        1.89
  WS02006231           JUNCTION     0.53     1.53     8.66     0  03:02        1.53
  WS02006232           JUNCTION     0.67     1.63     8.67     0  03:02        1.63
  WS02006234           JUNCTION     0.60     1.53     8.69     0  03:02        1.53
  WS02006235           JUNCTION     0.63     1.55     8.71     0  03:02        1.54
  WS02006238           JUNCTION     0.65     1.56     8.71     0  03:01        1.56
  WS02006240           JUNCTION     0.54     1.42     8.71     0  03:01        1.41
  WS02006242           JUNCTION     0.58     1.44     8.71     0  03:01        1.43
  WS02006243           JUNCTION     0.46     1.28     8.70     0  03:02        1.27
  WS02006245           JUNCTION     0.43     1.24     8.73     0  04:31        1.21
  WS02006247           JUNCTION     0.43     1.23     8.73     0  04:31        1.19
  WS02006248           JUNCTION     0.37     1.10     8.69     0  03:01        1.10
  WS02006249           JUNCTION     0.39     1.09     8.69     0  03:01        1.09
  WS02006239           JUNCTION     0.60     1.50     8.71     0  03:01        1.49
  WS02006251           JUNCTION     0.36     1.31     8.98     0  05:42        1.14
  WS02006252           JUNCTION     0.22     0.86     9.11     0  05:42        0.70
  WS02006253           JUNCTION     0.39     1.39     9.04     0  05:42        1.17
  WS02006256           JUNCTION     1.82     2.35     9.28     0  00:52        2.35
  WS02004138           JUNCTION     0.19     0.20     7.45     0  00:00        0.19
  WS02004139           JUNCTION     0.71     0.79     5.70     0  03:07        0.79
  WS02004407           JUNCTION     0.23     0.40     6.71     0  03:02        0.40
  WS02006228           JUNCTION     0.81     1.84     8.49     0  03:02        1.84
  WS02006229           JUNCTION     0.79     1.92     8.61     0  03:02        1.91
  WS02006280           JUNCTION     0.08     0.31     8.58     0  03:00        0.30
  WS02006284           JUNCTION     0.38     0.65     9.04     0  03:02        0.64
  WS02006287           JUNCTION     0.11     0.39     9.34     0  03:02        0.39
  WSF200               JUNCTION     0.22     0.44     5.67     0  03:04        0.44
  HS02004901           JUNCTION     0.14     0.38    10.20     0  03:01        0.37
  HS02004881           JUNCTION     0.01     0.05     9.08     0  03:01        0.05
  HS02004876           JUNCTION     0.05     0.16     9.19     0  03:01        0.16
  HS02004870           JUNCTION     0.02     0.09     9.38     0  03:01        0.09
  HS02004862           JUNCTION     0.02     0.11     9.49     0  03:01        0.11
  HS02004856           JUNCTION     0.08     0.15     9.58     0  03:01        0.15
  HS02004852           JUNCTION     0.01     0.07     9.59     0  03:02        0.07
  HS02004848           JUNCTION     0.01     0.07     9.67     0  03:01        0.07
  HS02004842           JUNCTION     0.34     0.40     9.67     0  03:01        0.40
  HS02004837           JUNCTION     0.03     0.09     9.67     0  03:01        0.09
  HS02004830           JUNCTION     0.04     0.10     9.57     0  03:01        0.10
  HS02004824           JUNCTION     0.03     0.13     9.53     0  03:02        0.13
  HS02004817           JUNCTION     0.45     0.69     9.54     0  03:02        0.69
  HS02004807           JUNCTION     0.14     0.36     9.53     0  03:02        0.36
  HS02004802           JUNCTION     0.17     0.39     9.52     0  03:02        0.39
  HS02004799           JUNCTION     0.14     0.46     9.68     0  03:01        0.46
  HS02004792           JUNCTION     0.04     0.22     9.74     0  03:01        0.21
  HS02004788           JUNCTION     0.03     0.16    10.05     0  03:02        0.16
  HS02004785           JUNCTION     0.06     0.25    10.15     0  03:02        0.25
  HS02004777           JUNCTION     0.16     0.39    10.19     0  03:01        0.39
  HS02004770           JUNCTION     0.13     0.37    10.20     0  03:01        0.36
  HS02004480           JUNCTION     0.10     0.38     9.62     0  03:01        0.38
  HS02004479           JUNCTION     0.13     0.42     9.62     0  03:01        0.42
  HS02004478           JUNCTION     0.07     0.28     9.50     0  03:01        0.28
  YS02001745           JUNCTION     0.72     0.96     8.47     0  03:01        0.96
  YS02001748           JUNCTION     1.12     2.10     9.18     0  02:32        1.38
  YS02001751           JUNCTION     1.29     2.06     8.94     0  02:32        1.58
  YS02001754           JUNCTION     1.54     2.00     8.61     0  02:32        1.84
  YS02001762           JUNCTION     1.74     2.05     8.45     0  03:00        2.03
  YS02001765           JUNCTION     1.69     2.00     8.45     0  03:01        1.98
  YS02001767           JUNCTION     1.66     1.96     8.45     0  03:00        1.94
  YS02001770           JUNCTION     1.65     1.94     8.43     0  03:00        1.93
  YS02001774           JUNCTION     1.72     1.99     8.41     0  03:00        1.98
  YS02001779           JUNCTION     1.47     1.68     8.37     0  02:33        1.68
  YS02001882           JUNCTION     0.62     1.66     8.37     0  02:46        1.63
  YS02001884           JUNCTION     0.71     1.75     8.37     0  02:46        1.73
  YS02001759           JUNCTION     1.78     2.09     8.45     0  03:00        2.07
  YS02001887           JUNCTION     0.79     1.82     8.35     0  03:00        1.81
  YS02001890           JUNCTION     0.82     1.81     8.32     0  02:46        1.81
  YS02001898           JUNCTION     0.59     1.57     8.30     0  02:46        1.55
  YS02001901           JUNCTION     0.70     1.68     8.29     0  02:46        1.67
  YS02001904           JUNCTION     0.68     1.64     8.27     0  02:46        1.63
  YS02001907           JUNCTION     1.01     1.96     8.25     0  02:46        1.96
  YS02001910           JUNCTION     0.80     1.79     8.30     0  02:48        1.79
  YS02001915           JUNCTION     0.60     1.61     8.33     0  02:47        1.59
  YS02001918           JUNCTION     0.34     1.32     8.39     0  02:47        1.31
  YS02001619           JUNCTION     1.26     1.61     8.54     0  02:32        1.48
  YS02001629           JUNCTION     1.60     1.85     8.40     0  02:31        1.84
  YS02001641           JUNCTION     1.70     1.94     8.37     0  03:01        1.93
  YS02001644           JUNCTION     1.70     1.92     8.35     0  02:36        1.92
  YS02001652           JUNCTION     1.56     2.16     8.76     0  02:46        1.88
  YS02001655           JUNCTION     1.32     2.20     9.05     0  02:25        1.66
  YS02001920           JUNCTION     0.43     1.41     8.42     0  02:47        1.39
  YS02001923           JUNCTION     0.26     1.18     8.44     0  02:47        1.16
  YS02001926           JUNCTION     0.31     1.07     8.52     0  02:47        1.02
  YS02001929           JUNCTION     0.18     0.76     8.45     0  02:48        0.71
  YS02001658           JUNCTION     1.06     2.27     9.42     0  02:45        1.38
  YS02001661           JUNCTION     0.83     2.46     9.86     0  02:46        1.19
  YS02001664           JUNCTION     0.37     0.58     8.50     0  02:43        0.56
  YS02001622           JUNCTION     1.28     1.62     8.52     0  02:32        1.50
  YS02001633           JUNCTION     1.69     1.95     8.40     0  02:59        1.94
  YS02001649           JUNCTION     1.75     2.05     8.44     0  02:42        2.04
  YS02001757           JUNCTION     1.87     2.18     8.44     0  03:12        2.18
  YS02001895           JUNCTION     0.58     1.57     8.31     0  02:46        1.56
  YS02001625           JUNCTION     1.56     1.78     8.38     0  02:31        1.78
  YS02163301           JUNCTION     1.63     1.89     8.41     0  02:32        1.88
  YS02163601           JUNCTION     1.74     1.99     8.39     0  02:36        1.98
  YS02164001           JUNCTION     1.68     1.92     8.38     0  02:36        1.91
  YS02001647           JUNCTION     1.54     1.81     8.42     0  02:42        1.79
  YSB1154              JUNCTION     0.27     0.57     9.62     0  03:01        0.57
  YSB6556              JUNCTION     0.17     0.45     9.62     0  03:01        0.45
  YSB1174              JUNCTION     0.22     0.51     9.62     0  03:01        0.51
  YSB1171              JUNCTION     0.42     0.72     9.62     0  03:01        0.72
  YS02006553           JUNCTION     1.01     1.97     8.25     0  03:00        1.96
  YS02006561           JUNCTION     0.35     1.10     7.76     0  02:46        1.08
  YS02006556           JUNCTION     0.98     1.93     8.24     0  03:00        1.93
  YS02006558           JUNCTION     1.02     1.98     8.25     0  03:00        1.97
  YS02001783           JUNCTION     0.58     1.50     7.64     0  02:46        1.47
  YS02001784           JUNCTION     0.59     1.84     7.91     0  02:42        1.42
  YS02001786           JUNCTION     0.51     2.16     8.19     0  02:42        1.26
  YS02001788           JUNCTION     0.43     2.07     8.04     0  02:42        1.13
  YS02001790           JUNCTION     0.54     1.96     7.60     0  02:41        1.29
  YS02001791           JUNCTION     0.47     2.58     8.05     0  02:41        1.27
  YS02001793           JUNCTION     0.63     2.18     7.01     0  02:41        1.80
  WSC                  OUTFALL      0.34     0.48     1.15     0  03:07        0.48
  JK-storage           STORAGE      2.82     5.80     6.60     0  02:07        5.80
  CC-storage           STORAGE      1.13     1.44     8.44     0  03:09        1.44
  XR-storage           STORAGE      6.62     7.72     5.72     0  02:55        7.72
  
  
  *******************
  Node Inflow Summary
  *******************
  
  -------------------------------------------------------------------------------------------------
                                  Maximum  Maximum                  Lateral       Total        Flow
                                  Lateral    Total  Time of Max      Inflow      Inflow     Balance
                                   Inflow   Inflow   Occurrence      Volume      Volume       Error
  Node                 Type           LPS      LPS  days hr:min    10^6 ltr    10^6 ltr     Percent
  -------------------------------------------------------------------------------------------------
  WS02001211           JUNCTION      7.35   390.81     0  03:21       0.207        9.97       0.400
  WS02001212           JUNCTION      0.00   394.28     0  03:21           0        9.93       0.244
  WS02001213           JUNCTION      0.00   397.26     0  03:21           0        9.91       0.278
  WS02003069           JUNCTION      0.32  1322.13     0  03:05     0.00902        18.4       0.177
  WS02003072           JUNCTION      0.00  1321.62     0  03:06           0        18.4       0.215
  WS02003073           JUNCTION      1.82  1323.89     0  03:06      0.0514        18.4       0.245
  WS02003060           JUNCTION     16.53  1322.10     0  03:05       0.466        18.4       0.167
  WS02003066           JUNCTION      0.00   939.92     0  03:04           0        8.12       0.050
  WS02003059           JUNCTION      0.00   401.19     0  03:21           0        9.88       0.401
  WS02003067           JUNCTION      0.00   939.04     0  03:04           0        8.13       0.107
  WS02004401           JUNCTION      0.00   942.80     0  03:02           0        8.34       0.235
  WS02004402           JUNCTION      0.00   942.93     0  03:02           0        8.32       0.223
  WS02004403           JUNCTION      0.00   943.04     0  03:02           0         8.3       0.205
  WS02004404           JUNCTION      0.16   943.45     0  03:02     0.00457        8.29       0.147
  WS02004406           JUNCTION      0.00   943.57     0  03:02           0        8.26       0.382
  WS02004409           JUNCTION      0.00   942.46     0  03:02           0        8.22       0.178
  WS02004410           JUNCTION      0.00   938.82     0  03:03           0        8.21       0.203
  WS02004411           JUNCTION      0.00   938.50     0  03:03           0        8.19       0.210
  WS02004412           JUNCTION      0.00   937.84     0  03:04           0        8.18       0.229
  WS02004413           JUNCTION      0.00   938.58     0  03:04           0        8.16       0.344
  WS02004405           JUNCTION      0.04   943.68     0  03:02     0.00107        8.28       0.228
  WS02006109           JUNCTION      1.23   917.98     0  03:02      0.0347        8.37       0.226
  WS02006110           JUNCTION      0.00   918.00     0  03:02           0        8.35       0.229
  WS02006111           JUNCTION      0.00   918.38     0  03:02           0        8.32       0.040
  WS02006112           JUNCTION     30.67   942.77     0  03:02      0.0853         8.4       0.320
  WS02006113           JUNCTION      0.00   918.02     0  03:02           0        8.33       0.102
  WS02006115           JUNCTION      0.00   942.77     0  03:02           0        8.38       0.226
  WS02006116           JUNCTION      0.00   942.61     0  03:02           0        8.36       0.193
  WS02006230           JUNCTION     10.28   533.27     0  05:43        0.29        5.94       0.164
  WS02006231           JUNCTION      0.00   523.04     0  05:42           0        5.66       0.150
  WS02006232           JUNCTION      0.00   523.11     0  05:43           0        5.67       0.282
  WS02006234           JUNCTION      0.00   522.38     0  05:42           0        5.68       0.072
  WS02006235           JUNCTION      0.00   522.94     0  05:51           0         5.8       0.217
  WS02006238           JUNCTION      0.00   327.61     0  05:52           0        2.33       0.283
  WS02006240           JUNCTION      0.00   327.30     0  05:44           0        2.24       0.382
  WS02006242           JUNCTION      0.00   327.14     0  05:45           0         2.2       0.428
  WS02006243           JUNCTION      0.00   327.19     0  05:44           0        2.17       0.091
  WS02006245           JUNCTION      0.00   330.55     0  07:00           0        2.17       0.273
  WS02006247           JUNCTION      0.00   348.89     0  07:00           0        2.17       0.102
  WS02006248           JUNCTION      0.00   363.12     0  07:00           0        2.17      -0.071
  WS02006249           JUNCTION      0.00   430.78     0  05:42           0        2.28       0.143
  WS02006239           JUNCTION      0.00   327.35     0  05:52           0        2.28       0.325
  WS02006251           JUNCTION      0.08   413.87     0  05:42     0.00217        2.32      -0.021
  WS02006252           JUNCTION      0.00   400.00     0  05:40           0         1.8       0.010
  WS02006253           JUNCTION      3.75   143.68     0  03:01      0.0103       0.515      -0.066
  WS02006256           JUNCTION      0.00   983.00     0  02:20           0        10.2       0.004
  WS02004138           JUNCTION      0.00   380.00     0  00:00           0         9.8       0.069
  WS02004139           JUNCTION      0.32   394.45     0  00:00     0.00905        9.81       0.460
  WS02004407           JUNCTION      0.00   943.89     0  03:02           0        8.23       0.080
  WS02006228           JUNCTION      0.00   916.72     0  03:02           0        8.35       0.158
  WS02006229           JUNCTION      0.00   930.26     0  03:01           0        8.36       0.162
  WS02006280           JUNCTION      0.00   679.99     0  03:02           0        2.43       0.012
  WS02006284           JUNCTION      0.10   678.86     0  03:02      0.0027        2.43       0.045
  WS02006287           JUNCTION      0.00   677.58     0  03:02           0        2.43       0.032
  WSF200               JUNCTION      0.00   940.10     0  03:04           0        8.12       0.046
  HS02004901           JUNCTION     37.63    37.63     0  03:01       0.103       0.103       1.742
  HS02004881           JUNCTION     14.26   140.52     0  03:01      0.0422       0.463       0.090
  HS02004876           JUNCTION     25.66   127.65     0  03:01      0.0814       0.422       0.130
  HS02004870           JUNCTION     26.26   103.63     0  03:01      0.0799        0.34       0.036
  HS02004862           JUNCTION     25.49    79.36     0  03:01      0.0888       0.261       0.068
  HS02004856           JUNCTION     19.64    55.40     0  03:01      0.0601       0.173       0.844
  HS02004852           JUNCTION      0.00    37.84     0  03:01           0       0.113       0.053
  HS02004848           JUNCTION     55.75    55.75     0  03:01       0.197       0.197       0.029
  HS02004842           JUNCTION      0.00    16.84     0  03:01           0       0.097      15.491
  HS02004837           JUNCTION     50.35    65.69     0  03:01       0.318       0.402       0.205
  HS02004830           JUNCTION      0.15    64.79     0  03:01     0.00423       0.392       0.316
  HS02004824           JUNCTION     65.57   128.44     0  03:01       0.251       0.642       0.086
  HS02004817           JUNCTION      0.60   124.46     0  03:01      0.0169       0.658       2.599
  HS02004807           JUNCTION     48.45   165.71     0  03:01       0.147       0.788       0.555
  HS02004802           JUNCTION      0.00   165.29     0  03:04           0       0.785       0.508
  HS02004799           JUNCTION     38.67   445.92     0  03:01       0.119        1.42       0.191
  HS02004792           JUNCTION    184.82   411.79     0  03:01        0.54         1.3       0.034
  HS02004788           JUNCTION     58.68   233.49     0  03:02       0.219       0.758       0.053
  HS02004785           JUNCTION      0.15   182.23     0  03:01     0.00423        0.54       0.093
  HS02004777           JUNCTION      0.03   185.02     0  03:01    0.000846       0.541       0.972
  HS02004770           JUNCTION    154.22   188.93     0  03:01       0.441       0.542       0.579
  HS02004480           JUNCTION      0.00   517.11     0  03:01           0        1.66       0.068
  HS02004479           JUNCTION      0.00    75.55     0  03:02           0       0.258       0.287
  HS02004478           JUNCTION      0.00   677.01     0  03:02           0        2.43       0.010
  YS02001745           JUNCTION    438.14   438.14     0  03:01        3.01        3.02       0.378
  YS02001748           JUNCTION      0.04   591.37     0  02:32     0.00127        3.01       0.739
  YS02001751           JUNCTION      0.01   441.35     0  03:01     0.00031        2.98       0.790
  YS02001754           JUNCTION      0.26   441.50     0  03:01     0.00733        2.96       0.839
  YS02001762           JUNCTION      0.00   314.49     0  02:43           0        2.03       1.052
  YS02001765           JUNCTION      0.00   314.60     0  02:42           0        2.03       1.214
  YS02001767           JUNCTION      0.54   314.58     0  02:43      0.0151        2.06       1.773
  YS02001770           JUNCTION    552.50   715.80     0  03:07        3.37        4.11       0.778
  YS02001774           JUNCTION      0.00   715.93     0  03:07           0        2.79       0.895
  YS02001779           JUNCTION      0.01   715.99     0  03:07    0.000141        2.76       0.567
  YS02001882           JUNCTION      0.00    39.83     0  02:43           0      0.0172      14.299
  YS02001884           JUNCTION      0.00    41.09     0  02:43           0      0.0547      12.603
  YS02001759           JUNCTION    536.49   621.36     0  02:43        3.11        4.36       0.523
  YS02001887           JUNCTION    679.97   679.97     0  03:01        3.56         3.6       0.237
  YS02001890           JUNCTION      0.00   680.29     0  03:01           0        3.55       0.260
  YS02001898           JUNCTION      0.00   517.81     0  02:58           0        3.45       0.083
  YS02001901           JUNCTION      0.00   518.12     0  02:58           0        3.45       0.204
  YS02001904           JUNCTION      0.00   517.68     0  02:58           0        3.44       0.179
  YS02001907           JUNCTION      0.00  1110.71     0  03:01           0        7.77       0.312
  YS02001910           JUNCTION      0.00   594.28     0  03:01           0        4.34       0.270
  YS02001915           JUNCTION    389.26   593.83     0  03:01        2.52        4.38       0.137
  YS02001918           JUNCTION      0.00   292.39     0  02:48           0        1.89       0.076
  YS02001619           JUNCTION    380.66   380.66     0  03:01        2.51        2.51       0.488
  YS02001629           JUNCTION      0.00   196.12     0  02:39           0        1.59       1.855
  YS02001641           JUNCTION      0.00   412.65     0  02:40           0        4.45       0.479
  YS02001644           JUNCTION    416.76  1562.99     0  03:01         2.9        12.1       0.221
  YS02001652           JUNCTION      0.00   499.64     0  03:01           0        2.62       0.910
  YS02001655           JUNCTION      0.15   499.74     0  03:01     0.00434        2.64       0.900
  YS02001920           JUNCTION      2.87   291.85     0  02:48      0.0809        1.87       0.155
  YS02001923           JUNCTION      0.04   284.84     0  02:48     0.00106        1.77       0.047
  YS02001926           JUNCTION      0.05   210.89     0  03:02     0.00147        1.76       0.195
  YS02001929           JUNCTION    189.18   189.18     0  03:01        1.75        1.75       0.036
  YS02001658           JUNCTION      0.00   589.84     0  02:28           0        2.68       0.812
  YS02001661           JUNCTION      0.00   684.70     0  02:43           0        2.94       0.150
  YS02001664           JUNCTION    492.63   492.63     0  03:01        2.67        2.93       0.217
  YS02001622           JUNCTION      0.00   381.14     0  03:01           0         2.5       1.294
  YS02001633           JUNCTION    423.29   423.29     0  03:01        2.99        4.52       0.718
  YS02001649           JUNCTION      0.00   876.54     0  02:39           0        6.88       0.535
  YS02001757           JUNCTION      0.00  1678.60     0  02:40           0        8.94       1.038
  YS02001895           JUNCTION      0.00   517.61     0  02:58           0        3.45       0.147
  YS02001625           JUNCTION      0.00   407.52     0  03:01           0        2.48       1.590
  YS02163301           JUNCTION      0.00   204.18     0  02:31           0        1.57       1.559
  YS02163601           JUNCTION      0.11   413.89     0  02:40      0.0031        4.48       0.673
  YS02164001           JUNCTION      0.00   413.32     0  02:40           0        4.46       0.460
  YS02001647           JUNCTION      0.00   791.52     0  03:09           0        6.16       0.465
  YSB1154              JUNCTION     44.76    44.76     0  03:01       0.144       0.144       1.019
  YSB6556              JUNCTION      0.00    43.26     0  03:01           0       0.145       0.870
  YSB1174              JUNCTION     38.10    38.10     0  03:01       0.106       0.107       1.223
  YSB1171              JUNCTION      0.00    76.86     0  03:01           0       0.257       2.526
  YS02006553           JUNCTION      0.00   709.50     0  03:46           0         6.7       0.231
  YS02006561           JUNCTION      0.00   981.14     0  03:21           0        9.92       0.005
  YS02006556           JUNCTION      0.00   709.60     0  03:46           0         6.7       0.167
  YS02006558           JUNCTION    587.14   982.24     0  03:21        3.28        9.95       0.052
  YS02001783           JUNCTION      0.00   981.21     0  03:21           0        9.92       0.023
  YS02001784           JUNCTION      1.06   982.57     0  03:20      0.0299        9.95       0.035
  YS02001786           JUNCTION      0.06   982.41     0  03:21     0.00159        9.95       0.033
  YS02001788           JUNCTION      0.07   982.43     0  03:20       0.002        9.95       0.019
  YS02001790           JUNCTION      0.15   982.75     0  03:21     0.00437        9.95       0.007
  YS02001791           JUNCTION      0.00   982.65     0  03:21           0        9.95       0.007
  YS02001793           JUNCTION      0.00   982.78     0  03:21           0        9.95      -0.037
  WSC                  OUTFALL       0.00  1325.11     0  03:07           0        18.3       0.000
  JK-storage           STORAGE       0.00   987.43     0  02:40           0        10.1     -10.245
  CC-storage           STORAGE       0.00  1679.54     0  02:40           0        5.96       1.104
  XR-storage           STORAGE    1024.87  1024.87     0  03:01        12.7        13.3      -0.002
  
  
  **********************
  Node Surcharge Summary
  **********************
  
  Surcharging occurs when water rises above the top of the highest conduit.
  ---------------------------------------------------------------------
                                               Max. Height   Min. Depth
                                   Hours       Above Crown    Below Rim
  Node                 Type      Surcharged         Meters       Meters
  ---------------------------------------------------------------------
  WS02004401           JUNCTION        0.42          0.248        1.412
  WS02004402           JUNCTION        0.44          0.234        1.506
  WS02004403           JUNCTION        0.45          0.208        1.822
  WS02004404           JUNCTION        0.79          0.250        2.530
  WS02004406           JUNCTION        0.54          0.175        2.275
  WS02004413           JUNCTION        0.14          0.024        2.176
  WS02004405           JUNCTION        0.63          0.223        2.577
  WS02006109           JUNCTION        2.75          0.848        0.972
  WS02006110           JUNCTION        1.26          0.553        1.297
  WS02006111           JUNCTION        0.09          0.093        1.777
  WS02006112           JUNCTION        1.46          0.580        1.100
  WS02006113           JUNCTION        0.11          0.135        1.795
  WS02006115           JUNCTION        0.32          0.226        2.024
  WS02006116           JUNCTION        0.34          0.216        2.074
  WS02006230           JUNCTION        0.82          0.810        0.760
  WS02006231           JUNCTION        1.09          0.825        0.705
  WS02006232           JUNCTION        2.63          0.933        0.547
  WS02006234           JUNCTION        1.84          0.813        0.427
  WS02006235           JUNCTION        2.08          0.835        0.455
  WS02006238           JUNCTION        2.16          0.845        0.585
  WS02006240           JUNCTION        1.51          0.706        0.684
  WS02006242           JUNCTION        1.59          0.711        0.109
  WS02006243           JUNCTION        1.01          0.574        0.196
  WS02006245           JUNCTION        0.91          0.532        0.318
  WS02006247           JUNCTION        0.90          0.516        0.244
  WS02006248           JUNCTION        0.73          0.380        0.000
  WS02006249           JUNCTION        0.77          0.390        0.000
  WS02006239           JUNCTION        1.71          0.764        0.526
  WS02006251           JUNCTION        0.37          0.282        0.898
  WS02006252           JUNCTION        0.83          0.465        0.635
  WS02006253           JUNCTION        0.40          0.354        2.126
  WS02006256           JUNCTION        6.81          2.050        0.000
  WS02006228           JUNCTION        2.72          1.013        1.187
  YS02001748           JUNCTION        5.22          1.020        0.170
  YS02001751           JUNCTION        5.37          1.063        0.137
  YS02001754           JUNCTION        5.58          0.947        0.203
  YS02001762           JUNCTION        5.75          1.049        0.101
  YS02001765           JUNCTION        5.72          0.999        0.101
  YS02001767           JUNCTION        5.70          0.958        0.072
  YS02001770           JUNCTION        5.68          0.910        0.010
  YS02001774           JUNCTION        5.74          0.992        0.058
  YS02001779           JUNCTION        5.56          0.680        0.000
  YS02001882           JUNCTION        1.08          0.656        0.174
  YS02001884           JUNCTION        1.09          0.688        0.182
  YS02001759           JUNCTION        5.78          1.089        0.121
  YS02001887           JUNCTION        1.17          0.766        0.184
  YS02001890           JUNCTION        1.20          0.760        0.000
  YS02001898           JUNCTION        1.04          0.538        0.202
  YS02001901           JUNCTION        1.13          0.678        0.192
  YS02001904           JUNCTION        1.11          0.638        0.212
  YS02001907           JUNCTION        1.93          0.950        0.000
  YS02001910           JUNCTION        1.24          0.791        0.309
  YS02001915           JUNCTION        1.06          0.614        0.386
  YS02001918           JUNCTION        0.91          0.325        0.485
  YS02001619           JUNCTION        5.37          0.610        0.000
  YS02001629           JUNCTION        5.38          0.470        0.000
  YS02001641           JUNCTION        5.73          0.936        0.164
  YS02001644           JUNCTION        5.73          0.920        0.000
  YS02001652           JUNCTION        5.61          1.130        0.000
  YS02001655           JUNCTION        5.40          1.200        0.000
  YS02001920           JUNCTION        0.93          0.412        0.728
  YS02001926           JUNCTION        0.01          0.070        0.830
  YS02001658           JUNCTION        5.25          1.275        0.025
  YS02001661           JUNCTION        0.12          1.390        0.000
  YS02001622           JUNCTION        5.41          0.620        0.000
  YS02001633           JUNCTION        5.71          0.929        0.131
  YS02001649           JUNCTION        5.76          1.050        0.000
  YS02001757           JUNCTION        5.86          1.181        0.029
  YS02001895           JUNCTION        1.06          0.567        0.183
  YS02001625           JUNCTION        5.64          0.780        0.000
  YS02163301           JUNCTION        5.69          0.888        0.142
  YS02163601           JUNCTION        5.75          0.990        0.090
  YS02164001           JUNCTION        5.72          0.921        0.179
  YS02001647           JUNCTION        5.62          0.814        0.086
  YS02006553           JUNCTION        2.03          0.971        0.219
  YS02006561           JUNCTION        0.95          0.303        0.847
  YS02006556           JUNCTION        1.47          0.893        0.457
  YS02006558           JUNCTION        1.43          0.879        0.521
  YS02001783           JUNCTION        1.19          0.699        0.901
  YS02001784           JUNCTION        1.15          1.045        0.445
  YS02001786           JUNCTION        1.09          1.363        0.067
  YS02001788           JUNCTION        1.03          1.265        0.215
  YS02001790           JUNCTION        1.94          1.157        0.000
  YS02001791           JUNCTION        2.05          1.777        0.143
  YS02001793           JUNCTION        2.36          1.181        1.419
  
  
  *********************
  Node Flooding Summary
  *********************
  
  Flooding refers to all water that overflows a node, whether it ponds or not.
  --------------------------------------------------------------------------
                                                             Total   Maximum
                                 Maximum   Time of Max       Flood    Ponded
                        Hours       Rate    Occurrence      Volume     Depth
  Node                 Flooded       LPS   days hr:min    10^6 ltr    Meters
  --------------------------------------------------------------------------
  WS02006248              0.05     22.04      0  03:03       0.003     0.000
  WS02006249              0.37    139.48      0  03:04       0.104     0.000
  WS02006256              3.61    832.37      0  03:02       6.598     0.000
  YS02001779              3.09    715.97      0  03:07       2.741     0.000
  YS02001890              0.34    163.74      0  03:01       0.085     0.000
  YS02001907              0.79    719.49      0  03:01       1.063     0.000
  YS02001619              0.01     31.05      0  02:32       0.000     0.000
  YS02001629              0.01     29.34      0  02:33       0.000     0.000
  YS02001644              4.96   1562.33      0  03:01      10.581     0.000
  YS02001652              0.01      8.35      0  02:46       0.000     0.000
  YS02001655              0.01    138.21      0  02:25       0.000     0.000
  YS02001661              0.01    139.13      0  02:46       0.000     0.000
  YS02001622              0.01     17.43      0  02:32       0.000     0.000
  YS02001649              0.01     41.17      0  02:46       0.001     0.000
  YS02001625              1.41    407.52      0  03:01       0.855     0.000
  YS02001790              0.01    206.82      0  02:41       0.000     0.000
  JK-storage              0.89    738.42      0  02:47       1.093     0.000
  XR-storage              3.52    644.87      0  03:01       2.728     0.000
  
  
  **********************
  Storage Volume Summary
  **********************
  
  --------------------------------------------------------------------------------------------------
                         Average     Avg  Evap Exfil       Maximum     Max    Time of Max    Maximum
                          Volume    Pcnt  Pcnt  Pcnt        Volume    Pcnt     Occurrence    Outflow
  Storage Unit           1000 m3    Full  Loss  Loss       1000 m3    Full    days hr:min        LPS
  --------------------------------------------------------------------------------------------------
  JK-storage               0.142      49     0     0         0.291     100       0  02:07     983.00
  CC-storage               3.147      20     0     0         4.013      26       0  03:09     400.00
  XR-storage               0.794      86     0     0         0.926     100       0  02:55     380.00
  
  
  ***********************
  Outfall Loading Summary
  ***********************
  
  ---------------------------------------------------------------------------------------------------------------------------------
                         Flow       Avg       Max       Total         Total         Total         Total         Total         Total
                         Freq      Flow      Flow      Volume           COD            SS            TN            TP         NH4-N
  Outfall Node           Pcnt       LPS       LPS    10^6 ltr            kg            kg            kg            kg            kg
  ---------------------------------------------------------------------------------------------------------------------------------
  WSC                   99.99    737.75   1325.11      18.329      2265.401      3912.893       145.410        17.130        88.021
  ---------------------------------------------------------------------------------------------------------------------------------
  System                99.99    737.75   1325.11      18.329      2265.401      3912.893       145.410        17.130        88.021
  
  
  ********************
  Link Flow Summary
  ********************
  
  -----------------------------------------------------------------------------
                                 Maximum  Time of Max   Maximum    Max/    Max/
                                  |Flow|   Occurrence   |Veloc|    Full    Full
  Link                 Type          LPS  days hr:min     m/sec    Flow   Depth
  -----------------------------------------------------------------------------
  WS02003066WSF200     CONDUIT    940.10     0  03:04      3.00    0.16    0.32
  WS02006287WS02006284 CONDUIT    678.76     0  03:02      2.38    0.31    0.39
  WS02006284WS02006280 CONDUIT    679.99     0  03:02      2.62    0.28    0.37
  WS02006280WS02006229 CONDUIT    680.06     0  03:02      3.94    0.15    0.51
  WS02006229WS02006228 CONDUIT    916.72     0  03:02      1.82    3.04    1.00
  WS02006256WS02006235 CONDUIT    264.10     0  00:52      3.74    2.80    1.00
  WS02006253WS02006251 CONDUIT    156.48     0  03:01      0.61    0.47    1.00
  WS02006252WS02006251 CONDUIT    404.28     0  05:42      3.22    1.48    1.00
  WS02006251WS02006249 CONDUIT    430.78     0  05:42      1.12    1.24    1.00
  WS02006249WS02006248 CONDUIT    363.12     0  07:00      1.14    1.99    1.00
  WS02006248WS02006247 CONDUIT    348.89     0  07:00      1.08    0.76    1.00
  WS02006247WS02006245 CONDUIT    330.55     0  07:00      1.02    2.62    1.00
  WS02006245WS02006243 CONDUIT    327.19     0  05:44      1.04    0.97    1.00
  WS02006243WS02006242 CONDUIT    327.14     0  05:45      0.89    0.70    1.00
  WS02006242WS02006240 CONDUIT    327.30     0  05:44      0.85    1.30    1.00
  WS02006240WS02006239 CONDUIT    327.35     0  05:52      0.89    1.03    1.00
  WS02006239WS02006238 CONDUIT    327.61     0  05:52      0.85    1.05    1.00
  WS02006238WS02006235 CONDUIT    328.31     0  05:51      1.05    0.73    1.00
  WS02006235WS02006234 CONDUIT    522.38     0  05:42      1.36    5.51    1.00
  WS02006234WS02006232 CONDUIT    523.11     0  05:43      1.36    1.06    1.00
  WS02006232WS02006231 CONDUIT    523.04     0  05:42      1.36    1.10    1.00
  WS02006231WS02006230 CONDUIT    522.99     0  05:43      1.41    7.93    1.00
  WS02006230WS02006229 CONDUIT    534.01     0  05:42      1.39   11.88    1.00
  WS02006228WS02006109 CONDUIT    916.75     0  03:02      1.82    4.01    1.00
  WS02006116WS02004401 CONDUIT    942.80     0  03:02      1.20    1.30    1.00
  WS02006115WS02006116 CONDUIT    942.61     0  03:02      1.20    1.21    1.00
  WS02006113WS02006111 CONDUIT    918.38     0  03:02      2.59    1.10    1.00
  WS02006112WS02006115 CONDUIT    942.77     0  03:02      1.20    0.56    1.00
  WS02006111WS02006112 CONDUIT    919.01     0  03:02      1.83    0.44    1.00
  WS02006110WS02006113 CONDUIT    918.02     0  03:02      1.83    0.84    1.00
  WS02006109WS02006110 CONDUIT    918.00     0  03:02      1.83    1.77    1.00
  WS02004411WS02004412 CONDUIT    937.84     0  03:04      1.24    1.33    0.92
  WS02004401WS02004402 CONDUIT    942.93     0  03:02      1.20    1.13    1.00
  WS02004413WS02003067 CONDUIT    939.04     0  03:04      1.55    0.40    0.72
  WS02004412WS02004413 CONDUIT    938.58     0  03:04      1.22    0.63    0.95
  WS02004410WS02004411 CONDUIT    938.50     0  03:03      1.23    1.28    0.94
  WS02004409WS02004410 CONDUIT    938.82     0  03:03      1.22    1.21    0.96
  WS02004407WS02004409 CONDUIT    942.46     0  03:02      1.68    0.33    0.68
  WS02004406WS02004407 CONDUIT    943.89     0  03:02      1.61    0.42    0.70
  WS02004405WS02004406 CONDUIT    943.57     0  03:02      1.20    1.86    1.00
  WS02004404WS02004405 CONDUIT    943.64     0  03:02      1.20    9.25    1.00
  WS02004403WS02004404 CONDUIT    943.29     0  03:02      1.20    0.68    1.00
  WS02004402WS02004403 CONDUIT    943.04     0  03:02      1.20    1.35    1.00
  WS02004139WS02001211 CONDUIT    383.46     0  03:21      0.90    0.48    0.64
  WS02004138WS02004139 CONDUIT    394.13     0  00:00      3.62    0.08    0.46
  WS02003067WS02003066 CONDUIT    939.92     0  03:04      1.65    0.30    0.50
  WS02001213WS02003059 CONDUIT    401.19     0  03:21      0.89    0.66    0.87
  WS02001212WS02001213 CONDUIT    397.26     0  03:21      1.32    0.61    0.55
  WS02001211WS02001212 CONDUIT    394.28     0  03:21      0.78    0.30    0.71
  WS02003072WS02003073 CONDUIT   1322.07     0  03:06      1.95    2.86    0.58
  WS02003069WS02003072 CONDUIT   1321.62     0  03:06      1.81    0.64    0.61
  WS02003060WS02003069 CONDUIT   1321.81     0  03:05      2.02    0.52    0.56
  WS02003059WS02003060 CONDUIT    406.60     0  03:20      0.95    0.27    0.77
  HS02004901HS02004770 CONDUIT     37.23     0  03:01      0.10    0.14    0.53
  HS02004876HS02004881 CONDUIT    127.62     0  03:01      1.21    1.36    0.15
  HS02004870HS02004876 CONDUIT    103.09     0  03:01      0.82    0.07    0.18
  HS02004842HS02004848 CONDUIT     16.84     0  03:01      0.07    0.01    0.33
  HS02004837HS02004842 CONDUIT     17.91     0  03:03      0.42    0.01    0.35
  HS02004830HS02004837 CONDUIT     64.64     0  03:01      0.67    0.06    0.14
  HS02004824HS02004830 CONDUIT     64.10     0  03:01      0.62    0.08    0.16
  HS02004817HS02004824 CONDUIT    123.86     0  03:01      0.31    0.06    0.58
  HS02004770HS02004777 CONDUIT    184.99     0  03:01      0.49    0.34    0.54
  HS02004799HS02004480 CONDUIT    444.28     0  03:01      1.07    0.56    0.60
  HS02004792HS02004799 CONDUIT    408.38     0  03:01      1.20    0.25    0.49
  HS02004788HS02004792 CONDUIT    232.94     0  03:02      1.27    0.15    0.26
  HS02004785HS02004788 CONDUIT    181.79     0  03:02      0.91    1.37    0.29
  HS02004777HS02004785 CONDUIT    182.08     0  03:01      0.57    0.22    0.45
  HS02004480HS02004478 CONDUIT    517.28     0  03:01      1.55    2.18    0.48
  HS02004479HS02004480 CONDUIT     77.37     0  03:02      0.30    0.07    0.57
  HS02004862HS02004870 CONDUIT     79.02     0  03:01      0.80    0.09    0.14
  HS02004848HS02004852 CONDUIT     37.84     0  03:01      0.53    0.04    0.10
  HS02004856HS02004862 CONDUIT     54.75     0  03:01      0.59    0.05    0.13
  HS02004852HS02004856 CONDUIT     37.74     0  03:02      0.34    0.04    0.16
  HS02004802HS02004478 CONDUIT    170.16     0  03:04      0.54    0.15    0.48
  HS02004478WS02006287 CONDUIT    677.58     0  03:02      2.11    0.19    0.36
  HS02004817HS02004807 CONDUIT    128.19     0  03:04      0.25    0.08    0.75
  HS02004807HS02004802 CONDUIT    165.29     0  03:04      0.46    0.32    0.53
  YS02001759YS02001757 CONDUIT    621.53     0  02:43      0.79    0.44    1.00
  YS02001762YS02001759 CONDUIT    313.92     0  02:42      0.40    0.36    1.00
  YS02001765YS02001762 CONDUIT    314.49     0  02:43      0.40    0.29    1.00
  YS02001770YS02001767 CONDUIT    314.05     0  02:43      0.40    1.24    1.00
  YS02001774YS02001770 CONDUIT    715.93     0  03:07      0.91    0.46    1.00
  YS02001779YS02001774 CONDUIT    715.98     0  03:07      0.91    0.36    1.00
  YS02001649YS02001757 CONDUIT    877.44     0  02:39      1.12    0.53    1.00
  YS02001767YS02001765 CONDUIT    314.60     0  02:42      0.40    0.40    1.00
  YS02006561YS02001783 CONDUIT    981.21     0  03:21      2.16    0.51    1.00
  YS02001783YS02001784 CONDUIT    981.51     0  03:20      1.95    1.35    1.00
  YS02001784YS02001785 CONDUIT    982.36     0  03:21      1.95    2.29    1.00
  YS02001788YS02001790 CONDUIT    982.59     0  03:21      2.44    0.72    1.00
  YS02001790YS02001791 CONDUIT    982.65     0  03:21      2.97    1.07    1.00
  YS02001791YS02001793 CONDUIT    982.78     0  03:21      5.90    0.42    1.00
  YS02001910YS02001907 CONDUIT    593.92     0  03:01      0.76    0.33    1.00
  YS02001786YS02001788 CONDUIT    982.36     0  03:20      2.31    1.89    1.00
  YS02001915YS02001910 CONDUIT    594.28     0  03:01      0.76    0.30    1.00
  YS02001918YS02001915 CONDUIT    294.53     0  02:48      0.44    0.16    1.00
  YS02001923YS02001920 CONDUIT    288.98     0  02:48      0.75    0.13    1.00
  YS02001926YS02001923 CONDUIT    284.80     0  02:48      0.86    0.41    0.98
  YS02001929YS02001926 CONDUIT    210.84     0  03:02      0.92    0.10    0.86
  YS02001920YS02001918 CONDUIT    292.39     0  02:48      0.72    0.28    1.00
  YS02001629YS02163301 CONDUIT    204.18     0  02:31      0.26    0.25    1.00
  YS02001619YS02001622 CONDUIT    381.14     0  03:01      0.59    0.56    1.00
  YS02001622YS02001625 CONDUIT    380.76     0  03:01      0.48    0.20    1.00
  YS02001625YS02001629 CONDUIT    196.12     0  02:39      0.25    0.09    1.00
  YS02163301YS02001633 CONDUIT    205.85     0  02:31      0.26    0.19    1.00
  YS02163601YS02164001 CONDUIT    413.32     0  02:40      0.53    0.37    1.00
  YS02164001YS02001641 CONDUIT    412.65     0  02:40      0.53    0.56    1.00
  YS02001641YS02001644 CONDUIT    413.00     0  02:40      0.53    1.34    1.00
  YS02001647YS02001649 CONDUIT    791.52     0  03:09      1.01    0.42    1.00
  YS02006553YS02006556 CONDUIT    709.60     0  03:46      0.90    0.61    1.00
  YS02006556YS02006558 CONDUIT    709.82     0  03:46      0.90    0.56    1.00
  YSB6556YSB1171       CONDUIT     42.88     0  03:02      0.13    0.04    0.82
  YS02001907YS02006553 CONDUIT    709.50     0  03:46      0.79    0.83    1.00
  YS02006558YS02006561 CONDUIT    981.14     0  03:21      3.49    2.17    1.00
  YS02001633YS02163601 CONDUIT    413.78     0  02:40      0.53    0.43    1.00
  YS02001644YS02001647 CONDUIT    791.53     0  03:09      1.01    0.46    1.00
  YS02001745YS02001748 CONDUIT    591.33     0  02:32      1.46    0.23    0.98
  YS02001748YS02001751 CONDUIT    441.34     0  03:01      1.03    0.22    1.00
  YS02001751YS02001754 CONDUIT    441.24     0  03:01      0.88    0.21    1.00
  YS02001754YS02001757 CONDUIT    441.31     0  03:01      0.56    0.18    1.00
  YS02001882YS02001884 CONDUIT     39.83     0  02:43      0.12    0.05    1.00
  YS02001884YS02001887 CONDUIT     41.09     0  02:43      0.08    0.05    1.00
  YS02001890YS02001895 CONDUIT    517.61     0  02:58      0.66    0.24    1.00
  YS02001895YS02001898 CONDUIT    517.81     0  02:58      0.66    0.90    1.00
  YS02001898YS02001901 CONDUIT    518.12     0  02:58      0.66    0.33    1.00
  YS02001901YS02001904 CONDUIT    517.68     0  02:58      0.66    0.80    1.00
  YS02001904YS02001907 CONDUIT    517.72     0  02:58      0.66    0.18    1.00
  YS02001887YS02001890 CONDUIT    680.29     0  03:01      0.87    1.16    1.00
  YS02001652YS02001649 CONDUIT    499.44     0  03:01      0.64    0.25    1.00
  YS02001655YS02001652 CONDUIT    499.64     0  03:01      0.94    0.24    1.00
  YS02001658YS02001655 CONDUIT    499.58     0  03:01      1.18    0.21    1.00
  YS02001661YS02001658 CONDUIT    589.84     0  02:28      1.52    0.23    1.00
  YS02001664YS02001661 CONDUIT    684.70     0  02:43      1.43    0.21    0.77
  YSB1154YSB6556       CONDUIT     43.26     0  03:01      0.18    0.08    0.73
  YSB1174YSB1171       CONDUIT     36.62     0  03:01      0.11    0.06    0.85
  YSB1171HS02004479    CONDUIT     75.55     0  03:02      0.54    0.05    0.68
  HS02004881HS02006253 CONDUIT    140.45     0  03:01      2.33    0.03    0.54
  YS02001793JiankangQianchi CONDUIT    987.43     0  02:40     16.61    0.08    1.00
  YS02001757CaochengTiaoxuchi CONDUIT   1679.54     0  02:40      2.17    0.74    1.00
  WSF200WS02003060     CONDUIT    940.66     0  03:04      1.94    0.21    0.44
  1                    CONDUIT   1325.11     0  03:07      3.58    0.46    0.48
  CC-Pump-1            PUMP       200.00     0  03:40              1.00
  CC-Pump-2            PUMP       200.00     0  05:40              1.00
  JK-Pump-1            PUMP       300.00     0  02:20              1.00
  JK-Pump-2            PUMP       683.00     0  02:20              1.00
  XR-Pump-1            PUMP        95.00     0  00:00              1.00
  XR-Pump-2            PUMP        95.00     0  00:00              1.00
  XR-Pump-3            PUMP        95.00     0  00:00              1.00
  XR-Pump-4            PUMP        95.00     0  00:00              1.00
  
  
  ***************************
  Flow Classification Summary
  ***************************
  
  -------------------------------------------------------------------------------------
                      Adjusted    ---------- Fraction of Time in Flow Class ---------- 
                       /Actual         Up    Down  Sub   Sup   Up    Down  Norm  Inlet 
  Conduit               Length    Dry  Dry   Dry   Crit  Crit  Crit  Crit  Ltd   Ctrl  
  -------------------------------------------------------------------------------------
  WS02003066WSF200        1.00   0.02  0.06  0.00  0.00  0.93  0.00  0.00  0.56  0.00
  WS02006287WS02006284    1.00   0.03  0.02  0.00  0.53  0.42  0.00  0.00  0.65  0.00
  WS02006284WS02006280    1.00   0.04  0.00  0.00  0.00  0.00  0.00  0.96  0.00  0.00
  WS02006280WS02006229    1.00   0.04  0.00  0.00  0.01  0.02  0.00  0.92  0.01  0.00
  WS02006229WS02006228    1.00   0.00  0.00  0.00  1.00  0.00  0.00  0.00  0.00  0.00
  WS02006256WS02006235    1.00   0.03  0.00  0.00  0.96  0.01  0.00  0.00  0.00  0.00
  WS02006253WS02006251    1.00   0.01  0.02  0.00  0.95  0.00  0.01  0.00  0.00  0.00
  WS02006252WS02006251    1.00   0.24  0.00  0.00  0.06  0.00  0.70  0.00  0.00  0.00
  WS02006251WS02006249    1.00   0.00  0.00  0.00  1.00  0.00  0.00  0.00  0.39  0.00
  WS02006249WS02006248    1.00   0.00  0.01  0.00  0.82  0.00  0.17  0.00  0.00  0.00
  WS02006248WS02006247    1.00   0.01  0.00  0.00  0.97  0.00  0.00  0.02  0.24  0.00
  WS02006247WS02006245    1.00   0.01  0.00  0.00  0.95  0.00  0.00  0.05  0.00  0.00
  WS02006245WS02006243    1.00   0.01  0.00  0.00  0.92  0.00  0.00  0.07  0.00  0.00
  WS02006243WS02006242    1.00   0.01  0.00  0.00  0.97  0.00  0.00  0.02  0.26  0.00
  WS02006242WS02006240    1.00   0.01  0.02  0.00  0.97  0.00  0.00  0.00  0.00  0.00
  WS02006240WS02006239    1.00   0.03  0.00  0.00  0.93  0.00  0.00  0.04  0.01  0.00
  WS02006239WS02006238    1.00   0.03  0.00  0.00  0.97  0.00  0.00  0.00  0.03  0.00
  WS02006238WS02006235    1.00   0.03  0.00  0.00  0.97  0.00  0.00  0.00  0.00  0.00
  WS02006235WS02006234    1.00   0.03  0.00  0.00  0.94  0.00  0.03  0.00  0.00  0.00
  WS02006234WS02006232    1.00   0.03  0.00  0.00  0.97  0.00  0.00  0.00  0.01  0.00
  WS02006232WS02006231    1.00   0.03  0.00  0.00  0.96  0.00  0.00  0.00  0.00  0.00
  WS02006231WS02006230    1.00   0.03  0.00  0.00  0.66  0.00  0.30  0.00  0.00  0.00
  WS02006230WS02006229    1.00   0.00  0.00  0.00  0.99  0.00  0.00  0.01  0.00  0.00
  WS02006228WS02006109    1.00   0.00  0.00  0.00  1.00  0.00  0.00  0.00  0.00  0.00
  WS02006116WS02004401    1.00   0.03  0.00  0.00  0.97  0.00  0.00  0.00  0.00  0.00
  WS02006115WS02006116    1.00   0.03  0.00  0.00  0.96  0.00  0.00  0.01  0.00  0.00
  WS02006113WS02006111    1.00   0.02  0.00  0.00  0.05  0.93  0.00  0.00  0.19  0.00
  WS02006112WS02006115    1.00   0.02  0.01  0.00  0.96  0.00  0.00  0.00  0.00  0.00
  WS02006111WS02006112    1.00   0.02  0.00  0.00  0.98  0.00  0.00  0.00  0.84  0.00
  WS02006110WS02006113    1.00   0.00  0.01  0.00  0.98  0.00  0.00  0.00  0.00  0.00
  WS02006109WS02006110    1.00   0.00  0.00  0.00  0.99  0.00  0.00  0.00  0.00  0.00
  WS02004411WS02004412    1.00   0.05  0.00  0.00  0.95  0.00  0.00  0.00  0.00  0.00
  WS02004401WS02004402    1.00   0.03  0.00  0.00  0.97  0.00  0.00  0.00  0.00  0.00
  WS02004413WS02003067    1.00   0.05  0.01  0.00  0.00  0.00  0.94  0.00  0.00  0.00
  WS02004412WS02004413    1.00   0.05  0.00  0.00  0.95  0.00  0.00  0.00  0.01  0.00
  WS02004410WS02004411    1.00   0.05  0.00  0.00  0.95  0.00  0.00  0.00  0.00  0.00
  WS02004409WS02004410    1.00   0.05  0.00  0.00  0.95  0.00  0.00  0.00  0.01  0.00
  WS02004407WS02004409    1.00   0.05  0.00  0.00  0.95  0.00  0.00  0.00  0.84  0.00
  WS02004406WS02004407    1.00   0.00  0.05  0.00  0.95  0.00  0.00  0.00  0.00  0.00
  WS02004405WS02004406    1.00   0.00  0.00  0.00  1.00  0.00  0.00  0.00  0.04  0.00
  WS02004404WS02004405    1.00   0.00  0.00  0.00  1.00  0.00  0.00  0.00  0.00  0.00
  WS02004403WS02004404    1.00   0.00  0.04  0.00  0.96  0.00  0.00  0.00  0.01  0.00
  WS02004402WS02004403    1.00   0.03  0.00  0.00  0.97  0.00  0.00  0.00  0.00  0.00
  WS02004139WS02001211    1.00   0.00  0.00  0.00  1.00  0.00  0.00  0.00  0.00  0.00
  WS02004138WS02004139    1.00   0.00  0.00  0.00  1.00  0.00  0.00  0.00  1.00  0.00
  WS02003067WS02003066    1.00   0.06  0.01  0.00  0.93  0.00  0.00  0.00  0.00  0.00
  WS02001213WS02003059    1.00   0.00  0.00  0.00  1.00  0.00  0.00  0.00  0.00  0.00
  WS02001212WS02001213    1.00   0.00  0.00  0.00  0.89  0.00  0.11  0.00  0.00  0.00
  WS02001211WS02001212    1.00   0.00  0.00  0.00  1.00  0.00  0.00  0.00  0.00  0.00
  WS02003072WS02003073    1.00   0.00  0.00  0.00  0.00  0.00  0.00  1.00  0.00  0.00
  WS02003069WS02003072    1.00   0.00  0.00  0.00  1.00  0.00  0.00  0.00  0.13  0.00
  WS02003060WS02003069    1.00   0.00  0.00  0.00  0.99  0.01  0.00  0.00  0.08  0.00
  WS02003059WS02003060    1.00   0.00  0.00  0.00  1.00  0.00  0.00  0.00  0.00  0.00
  HS02004901HS02004770    1.00   0.04  0.00  0.00  0.96  0.00  0.00  0.00  0.00  0.00
  HS02004876HS02004881    1.00   0.01  0.00  0.00  0.88  0.11  0.00  0.00  0.00  0.00
  HS02004870HS02004876    1.00   0.00  0.00  0.00  1.00  0.00  0.00  0.00  0.95  0.00
  HS02004842HS02004848    1.00   0.00  0.04  0.00  0.96  0.00  0.00  0.00  0.54  0.00
  HS02004837HS02004842    1.00   0.00  0.00  0.00  1.00  0.00  0.00  0.00  0.11  0.00
  HS02004830HS02004837    1.00   0.00  0.00  0.00  1.00  0.00  0.00  0.00  0.99  0.00
  HS02004824HS02004830    1.00   0.00  0.00  0.00  1.00  0.00  0.00  0.00  0.01  0.00
  HS02004817HS02004824    1.00   0.00  0.00  0.00  1.00  0.00  0.00  0.00  0.97  0.00
  HS02004770HS02004777    1.00   0.00  0.04  0.00  0.96  0.00  0.00  0.00  0.03  0.00
  HS02004799HS02004480    1.00   0.00  0.01  0.00  0.95  0.00  0.04  0.00  0.00  0.00
  HS02004792HS02004799    1.00   0.00  0.00  0.00  1.00  0.00  0.00  0.00  0.98  0.00
  HS02004788HS02004792    1.00   0.00  0.00  0.00  1.00  0.00  0.00  0.00  0.98  0.00
  HS02004785HS02004788    1.00   0.00  0.00  0.00  1.00  0.00  0.00  0.00  0.00  0.00
  HS02004777HS02004785    1.00   0.00  0.00  0.00  1.00  0.00  0.00  0.00  0.12  0.00
  HS02004480HS02004478    1.00   0.04  0.00  0.00  0.64  0.00  0.00  0.32  0.00  0.00
  HS02004479HS02004480    1.00   0.01  0.00  0.00  0.99  0.00  0.00  0.00  0.12  0.00
  HS02004862HS02004870    1.00   0.00  0.00  0.00  1.00  0.00  0.00  0.00  0.04  0.00
  HS02004848HS02004852    1.00   0.04  0.00  0.00  0.96  0.00  0.00  0.00  0.64  0.00
  HS02004856HS02004862    1.00   0.00  0.05  0.00  0.95  0.00  0.00  0.00  0.83  0.00
  HS02004852HS02004856    1.00   0.04  0.00  0.00  0.95  0.00  0.00  0.00  0.81  0.00
  HS02004802HS02004478    1.00   0.04  0.00  0.00  0.95  0.00  0.00  0.00  0.02  0.00
  HS02004478WS02006287    1.00   0.05  0.00  0.00  0.72  0.23  0.00  0.00  0.65  0.00
  HS02004817HS02004807    1.00   0.00  0.04  0.00  0.96  0.00  0.00  0.00  0.01  0.00
  HS02004807HS02004802    1.00   0.04  0.00  0.00  0.95  0.00  0.00  0.01  0.00  0.00
  YS02001759YS02001757    1.00   0.00  0.00  0.00  1.00  0.00  0.00  0.00  0.16  0.00
  YS02001762YS02001759    1.00   0.00  0.00  0.00  1.00  0.00  0.00  0.00  0.03  0.00
  YS02001765YS02001762    1.00   0.00  0.00  0.00  1.00  0.00  0.00  0.00  0.14  0.00
  YS02001770YS02001767    1.00   0.00  0.00  0.00  1.00  0.00  0.00  0.00  0.00  0.00
  YS02001774YS02001770    1.00   0.00  0.04  0.00  0.96  0.00  0.00  0.00  0.03  0.00
  YS02001779YS02001774    1.00   0.00  0.00  0.00  1.00  0.00  0.00  0.00  0.19  0.00
  YS02001649YS02001757    1.00   0.00  0.00  0.00  1.00  0.00  0.00  0.00  0.16  0.00
  YS02001767YS02001765    1.00   0.00  0.00  0.00  1.00  0.00  0.00  0.00  0.00  0.00
  YS02006561YS02001783    1.00   0.06  0.00  0.00  0.37  0.57  0.00  0.00  0.47  0.00
  YS02001783YS02001784    1.00   0.00  0.06  0.00  0.94  0.00  0.00  0.00  0.00  0.00
  YS02001784YS02001785    1.00   0.00  0.00  0.00  1.00  0.00  0.00  0.00  0.18  0.00
  YS02001788YS02001790    1.00   0.00  0.00  0.00  0.37  0.63  0.00  0.00  0.38  0.00
  YS02001790YS02001791    1.00   0.00  0.00  0.00  0.32  0.68  0.00  0.00  0.44  0.00
  YS02001791YS02001793    1.00   0.00  0.00  0.00  0.36  0.64  0.00  0.00  0.03  0.00
  YS02001910YS02001907    1.00   0.00  0.00  0.00  0.99  0.00  0.00  0.01  0.12  0.00
  YS02001786YS02001788    1.00   0.00  0.00  0.00  0.36  0.64  0.00  0.00  0.00  0.00
  YS02001915YS02001910    1.00   0.00  0.00  0.00  0.99  0.01  0.00  0.00  0.16  0.00
  YS02001918YS02001915    1.00   0.00  0.00  0.00  0.99  0.00  0.00  0.00  0.54  0.00
  YS02001923YS02001920    1.00   0.00  0.00  0.00  1.00  0.00  0.00  0.00  0.82  0.00
  YS02001926YS02001923    1.00   0.00  0.02  0.00  0.18  0.00  0.80  0.00  0.00  0.00
  YS02001929YS02001926    1.00   0.00  0.04  0.00  0.96  0.00  0.00  0.00  0.74  0.00
  YS02001920YS02001918    1.00   0.00  0.00  0.00  1.00  0.00  0.00  0.00  0.00  0.00
  YS02001629YS02163301    1.00   0.05  0.00  0.00  0.95  0.00  0.00  0.00  0.00  0.00
  YS02001619YS02001622    1.00   0.04  0.00  0.00  0.96  0.00  0.00  0.00  0.00  0.00
  YS02001622YS02001625    1.00   0.04  0.00  0.00  0.96  0.00  0.00  0.00  0.05  0.00
  YS02001625YS02001629    1.00   0.04  0.02  0.00  0.92  0.00  0.02  0.00  0.00  0.00
  YS02163301YS02001633    1.00   0.00  0.05  0.00  0.95  0.00  0.00  0.00  0.00  0.00
  YS02163601YS02164001    1.00   0.00  0.02  0.00  0.98  0.00  0.00  0.00  0.00  0.00
  YS02164001YS02001641    1.00   0.00  0.02  0.00  0.98  0.00  0.00  0.00  0.06  0.00
  YS02001641YS02001644    1.00   0.00  0.00  0.00  1.00  0.00  0.00  0.00  0.00  0.00
  YS02001647YS02001649    1.00   0.00  0.06  0.00  0.94  0.00  0.00  0.00  0.01  0.00
  YS02006553YS02006556    1.00   0.00  0.00  0.00  1.00  0.00  0.00  0.00  0.03  0.00
  YS02006556YS02006558    1.00   0.00  0.00  0.00  1.00  0.00  0.00  0.00  0.00  0.00
  YSB6556YSB1171          1.00   0.01  0.03  0.00  0.96  0.00  0.00  0.00  0.00  0.00
  YS02001907YS02006553    1.00   0.00  0.01  0.00  0.99  0.00  0.00  0.00  0.00  0.00
  YS02006558YS02006561    1.00   0.06  0.00  0.00  0.18  0.76  0.00  0.00  0.49  0.00
  YS02001633YS02163601    1.00   0.00  0.00  0.00  1.00  0.00  0.00  0.00  0.15  0.00
  YS02001644YS02001647    1.00   0.00  0.06  0.00  0.94  0.00  0.00  0.00  0.00  0.00
  YS02001745YS02001748    1.00   0.00  0.00  0.00  0.89  0.01  0.00  0.10  0.04  0.00
  YS02001748YS02001751    1.00   0.00  0.00  0.00  0.96  0.04  0.00  0.00  0.15  0.00
  YS02001751YS02001754    1.00   0.00  0.00  0.00  0.93  0.00  0.00  0.07  0.02  0.00
  YS02001754YS02001757    1.00   0.00  0.00  0.00  1.00  0.00  0.00  0.00  0.18  0.00
  YS02001882YS02001884    1.00   0.05  0.00  0.00  0.95  0.00  0.00  0.00  0.00  0.00
  YS02001884YS02001887    1.00   0.02  0.02  0.00  0.97  0.00  0.00  0.00  0.00  0.00
  YS02001890YS02001895    1.00   0.00  0.05  0.00  0.95  0.00  0.00  0.00  0.00  0.00
  YS02001895YS02001898    1.00   0.05  0.00  0.00  0.93  0.00  0.01  0.00  0.00  0.00
  YS02001898YS02001901    1.00   0.05  0.00  0.00  0.95  0.00  0.00  0.00  0.01  0.00
  YS02001901YS02001904    1.00   0.05  0.00  0.00  0.95  0.00  0.00  0.00  0.00  0.00
  YS02001904YS02001907    1.00   0.00  0.05  0.00  0.95  0.00  0.00  0.00  0.00  0.00
  YS02001887YS02001890    1.00   0.00  0.00  0.00  0.99  0.00  0.01  0.00  0.00  0.00
  YS02001652YS02001649    1.00   0.00  0.00  0.00  1.00  0.00  0.00  0.00  0.17  0.00
  YS02001655YS02001652    1.00   0.00  0.00  0.00  0.93  0.00  0.00  0.07  0.02  0.00
  YS02001658YS02001655    1.00   0.00  0.05  0.00  0.92  0.04  0.00  0.00  0.10  0.00
  YS02001661YS02001658    1.00   0.05  0.00  0.00  0.89  0.06  0.00  0.00  0.11  0.00
  YS02001664YS02001661    1.00   0.04  0.00  0.00  0.91  0.05  0.00  0.00  0.20  0.00
  YSB1154YSB6556          1.00   0.04  0.00  0.00  0.96  0.00  0.00  0.00  0.02  0.00
  YSB1174YSB1171          1.00   0.01  0.01  0.00  0.97  0.00  0.00  0.00  0.00  0.00
  YSB1171HS02004479       1.00   0.01  0.00  0.00  0.98  0.00  0.00  0.00  0.10  0.00
  HS02004881HS02006253    1.00   0.02  0.00  0.00  0.46  0.03  0.00  0.49  0.30  0.00
  YS02001793JiankangQianchi    1.00   0.00  0.00  0.00  0.67  0.33  0.00  0.00  0.39  0.00
  YS02001757CaochengTiaoxuchi    1.00   0.00  0.08  0.00  0.92  0.00  0.00  0.00  0.00  0.00
  WSF200WS02003060        1.00   0.00  0.02  0.00  0.97  0.01  0.00  0.00  0.51  0.00
  1                       1.00   0.00  0.00  0.00  0.00  1.00  0.00  0.00  0.51  0.00
  
  
  *************************
  Conduit Surcharge Summary
  *************************
  
  ----------------------------------------------------------------------------
                                                           Hours        Hours 
                         --------- Hours Full --------   Above Full   Capacity
  Conduit                Both Ends  Upstream  Dnstream   Normal Flow   Limited
  ----------------------------------------------------------------------------
  WS02006229WS02006228        2.72      2.77      2.72      3.65         2.72
  WS02006256WS02006235        5.00      5.00      6.81      4.40         0.01
  WS02006253WS02006251        0.68      0.68      0.74      0.01         0.02
  WS02006252WS02006251        0.53      0.53      0.83      0.54         0.01
  WS02006251WS02006249        0.69      0.69      0.77      0.25         0.17
  WS02006249WS02006248        0.72      0.73      0.77      1.37         0.01
  WS02006248WS02006247        0.77      0.77      0.90      0.01         0.01
  WS02006247WS02006245        0.91      0.92      0.91      2.03         0.77
  WS02006245WS02006243        0.93      0.93      1.01      0.01         0.06
  WS02006243WS02006242        1.05      1.05      1.59      0.01         0.01
  WS02006242WS02006240        1.51      1.51      1.72      0.43         0.01
  WS02006240WS02006239        1.56      1.56      1.71      0.21         0.16
  WS02006239WS02006238        1.94      1.94      2.16      0.22         0.19
  WS02006238WS02006235        2.15      2.15      2.36      0.01         0.01
[...]
  YS02001779YS02001774        5.56      5.56      5.74      0.01         0.01
  YS02001649YS02001757        5.76      5.76      5.86      0.01         0.01
  YS02001767YS02001765        5.70      5.70      5.72      0.01         0.01
  YS02006561YS02001783        0.95      0.95      1.19      0.01         0.01
  YS02001783YS02001784        1.15      1.19      1.15      1.56         1.14
  YS02001784YS02001785        1.09      1.15      1.09      2.51         1.09
  YS02001788YS02001790        1.03      1.03      1.94      0.01         0.01
  YS02001790YS02001791        1.94      1.94      2.05      1.07         1.05
  YS02001791YS02001793        2.05      2.05      2.47      0.01         0.01
  YS02001910YS02001907        1.24      1.24      1.93      0.01         0.01
  YS02001786YS02001788        1.03      1.09      1.03      2.14         1.03
  YS02001915YS02001910        1.06      1.06      1.24      0.01         0.01
  YS02001918YS02001915        0.91      0.91      1.06      0.01         0.01
  YS02001923YS02001920        0.75      0.75      0.93      0.01         0.01
  YS02001926YS02001923        0.01      0.01      0.01      0.01         0.01
  YS02001929YS02001926        0.01      0.01      0.01      0.01         0.01
  YS02001920YS02001918        0.91      0.91      0.93      0.01         0.01
  YS02001629YS02163301        5.67      5.67      5.69      0.01         0.01
  YS02001619YS02001622        5.37      5.37      5.41      0.01         0.01
  YS02001622YS02001625        5.41      5.41      5.64      0.01         0.01
  YS02001625YS02001629        5.38      5.38      5.64      0.01         0.01
  YS02163301YS02001633        5.69      5.69      5.72      0.01         0.01
  YS02163601YS02164001        5.72      5.72      5.75      0.01         0.01
  YS02164001YS02001641        5.72      5.72      5.73      0.01         0.03
  YS02001641YS02001644        5.73      5.73      5.73      1.72         1.99
  YS02001647YS02001649        5.62      5.62      5.76      0.01         0.01
  YS02006553YS02006556        1.47      1.47      2.03      0.01         0.01
  YS02006556YS02006558        1.68      1.68      2.08      0.01         0.01
  YSB6556YSB1171              0.01      0.01      0.07      0.01         0.01
  YS02001907YS02006553        2.53      2.53      2.79      0.01         0.01
  YS02006558YS02006561        1.06      1.43      1.06      2.36         1.06
  YS02001633YS02163601        5.71      5.71      5.75      0.01         0.01
  YS02001644YS02001647        5.62      5.62      5.73      0.01         0.01
  YS02001745YS02001748        0.01      0.01      5.22      0.01         0.01
  YS02001748YS02001751        5.27      5.27      5.37      0.01         0.01
  YS02001751YS02001754        5.37      5.37      5.58      0.01         0.01
  YS02001754YS02001757        5.62      5.62      5.86      0.01         0.01
  YS02001882YS02001884        1.08      1.08      1.09      0.01         0.01
  YS02001884YS02001887        1.14      1.14      1.17      0.01         0.01
  YS02001890YS02001895        1.06      1.06      1.26      0.01         0.01
  YS02001895YS02001898        1.04      1.04      1.06      0.01         0.01
  YS02001898YS02001901        1.06      1.06      1.13      0.01         0.01
  YS02001901YS02001904        1.11      1.11      1.13      0.01         0.01
  YS02001904YS02001907        1.11      1.11      2.04      0.01         0.01
  YS02001887YS02001890        1.20      1.20      1.23      0.16         0.01
  YS02001652YS02001649        5.63      5.63      5.76      0.01         0.01
  YS02001655YS02001652        5.39      5.39      5.61      0.01         0.01
  YS02001658YS02001655        5.25      5.25      5.40      0.01         0.01
  YS02001661YS02001658        0.11      0.11      5.25      0.01         0.01
  YS02001664YS02001661        0.01      0.01      1.25      0.01         0.01
  HS02004881HS02006253        0.01      0.01      0.40      0.01         0.01
  YS02001793JiankangQianchi        2.36      2.36      4.96      0.01         0.01
  YS02001757CaochengTiaoxuchi        5.11      5.11      5.86      0.01         0.01
  
  
  ***************
  Pumping Summary
  ***************
  
  ---------------------------------------------------------------------------------------------------------
                                                  Min       Avg       Max     Total     Power    % Time Off
                        Percent   Number of      Flow      Flow      Flow    Volume     Usage    Pump Curve
  Pump                 Utilized   Start-Ups       LPS       LPS       LPS  10^6 ltr     Kw-hr    Low   High
  ---------------------------------------------------------------------------------------------------------
  CC-Pump-1               38.30           5      0.00    130.00    200.00     1.320      1.03    0.0    0.0
  CC-Pump-2               14.89           3      0.00    108.67    200.00     0.480      0.55    0.0    0.0
  JK-Pump-1               61.70           4      0.00    228.86    300.00     3.642     54.38    0.0    0.0
  JK-Pump-2               57.45           5      0.00    457.78    683.00     6.520     89.96    0.0   94.8
  XR-Pump-1              100.00           1      0.00     94.39     95.00     2.622     25.43    0.0    0.0
  XR-Pump-2               95.74           3      0.00     92.04     95.00     2.394     20.71    0.0    0.0
  XR-Pump-3               95.74           3      0.00     92.04     95.00     2.394     20.71    0.0    0.0
  XR-Pump-4               95.74           3      0.00     92.04     95.00     2.394     20.71    0.0    0.0
  
  
  ***************************
  Link Pollutant Load Summary
  ***************************
  
  ------------------------------------------------------------------------------------------
                                 COD            SS            TN            TP         NH4-N
  Link                            kg            kg            kg            kg            kg
  ------------------------------------------------------------------------------------------
  WS02003066WSF200           753.571      1413.379        20.014         1.773        10.578
  WS02006287WS02006284       319.469       608.100        10.314         1.015         5.678
  WS02006284WS02006280       319.956       608.901        10.360         1.021         5.707
  WS02006280WS02006229       319.906       608.806        10.358         1.020         5.706
  WS02006229WS02006228       736.562      1382.574        19.268         1.689        10.144
  WS02006256WS02006235       219.245       405.690         4.742         0.364         2.384
  WS02006253WS02006251        61.202       120.424         1.335         0.099         0.660
  WS02006252WS02006251       158.546       289.932         3.329         0.244         1.642
  WS02006251WS02006249       212.695       397.452         4.516         0.333         2.230
  WS02006249WS02006248       200.860       374.314         4.272         0.315         2.110
  WS02006248WS02006247       200.751       374.042         4.272         0.315         2.111
  WS02006247WS02006245       200.618       373.786         4.272         0.315         2.111
  WS02006245WS02006243       200.314       373.286         4.265         0.315         2.108
  WS02006243WS02006242       200.482       373.551         4.277         0.316         2.115
  WS02006242WS02006240       201.795       375.798         4.296         0.317         2.123
  WS02006240WS02006239       203.898       379.374         4.351         0.321         2.151
  WS02006239WS02006238       206.370       383.345         4.428         0.328         2.193
  WS02006238WS02006235       208.115       386.196         4.478         0.332         2.220
  WS02006235WS02006234       416.248       772.910         8.918         0.671         4.445
  WS02006234WS02006232       416.666       773.610         8.931         0.672         4.452
  WS02006232WS02006231       416.473       773.263         8.926         0.671         4.449
  WS02006231WS02006230       416.377       773.150         8.922         0.671         4.447
  WS02006230WS02006229       416.846       774.028         8.930         0.672         4.451
  WS02006228WS02006109       736.608      1382.650        19.259         1.688        10.138
  WS02006116WS02004401       755.894      1417.466        20.154         1.789        10.663
  WS02006115WS02006116       756.021      1417.671        20.165         1.791        10.669
  WS02006113WS02006111       744.419      1395.144        19.999         1.780        10.600
  WS02006112WS02006115       756.322      1418.116        20.197         1.795        10.689
  WS02006111WS02006112       744.599      1395.519        20.002         1.781        10.601
  WS02006110WS02006113       744.608      1395.451        20.018         1.783        10.612
  WS02006109WS02006110       745.092      1396.214        20.069         1.789        10.644
  WS02004411WS02004412       755.022      1415.847        20.104         1.783        10.632
  WS02004401WS02004402       755.626      1417.052        20.128         1.786        10.646
  WS02004413WS02003067       753.746      1413.745        20.021         1.774        10.582
  WS02004412WS02004413       754.694      1415.305        20.082         1.781        10.619
  WS02004410WS02004411       755.262      1416.272        20.119         1.785        10.641
  WS02004409WS02004410       755.546      1416.759        20.138         1.787        10.653
  WS02004407WS02004409       755.669      1416.995        20.145         1.788        10.657
  WS02004406WS02004407       755.656      1417.039        20.139         1.787        10.653
  WS02004405WS02004406       756.597      1418.596        20.219         1.797        10.703
  WS02004404WS02004405       756.241      1418.041        20.186         1.793        10.682
  WS02004403WS02004404       755.201      1416.369        20.090         1.781        10.622
  WS02004402WS02004403       755.445      1416.752        20.113         1.784        10.637
  WS02004139WS02001211      1370.049      2275.216       111.141        13.566        68.505
  WS02004138WS02004139      1376.252      2285.576       111.620        13.624        68.799
  WS02003067WS02003066       753.694      1413.604        20.020         1.774        10.581
  WS02001213WS02003059      1403.583      2327.937       114.610        14.003        70.685
  WS02001212WS02001213      1412.408      2342.565       115.323        14.090        71.125
  WS02001211WS02001212      1414.486      2345.954       115.504        14.112        71.237
  WS02003072WS02003073      2258.660      3902.897       144.601        17.027        87.509
  WS02003069WS02003072      2263.625      3910.926       145.032        17.080        87.776
  WS02003060WS02003069      2265.912      3914.809       145.188        17.098        87.871
  WS02003059WS02003060      1400.719      2323.081       114.408        13.979        70.562
  HS02004901HS02004770        13.092        25.470         0.248         0.019         0.116
  HS02004876HS02004881        45.513        90.344         0.999         0.073         0.491
  HS02004870HS02004876        34.380        68.101         0.798         0.060         0.395
  HS02004842HS02004848         6.456        12.343         0.134         0.009         0.062
  HS02004837HS02004842        11.058        19.639         0.603         0.068         0.356
  HS02004830HS02004837        70.293       122.719         4.643         0.552         2.826
  HS02004824HS02004830        71.065       123.974         4.715         0.561         2.871
  HS02004817HS02004824        97.158       176.398         5.254         0.596         3.134
  HS02004770HS02004777        49.658        97.705         1.021         0.069         0.472
  HS02004799HS02004480       162.317       310.822         4.263         0.379         2.209
  HS02004792HS02004799       147.268       280.111         4.028         0.367         2.105
  HS02004788HS02004792        82.815       157.683         2.666         0.255         1.440
  HS02004785HS02004788        51.120       100.046         1.172         0.089         0.567
  HS02004777HS02004785        50.445        98.940         1.112         0.081         0.530
  HS02004480HS02004478       204.811       395.167         4.971         0.429         2.543
  HS02004479HS02004480        46.124        90.106         1.037         0.091         0.538
  HS02004862HS02004870        25.798        50.337         0.628         0.050         0.314
  HS02004848HS02004852        10.251        19.884         0.210         0.014         0.097
  HS02004856HS02004862        17.523        34.747         0.350         0.023         0.164
  HS02004852HS02004856        10.255        19.888         0.210         0.014         0.097
  HS02004802HS02004478       115.332       214.035         5.397         0.592         3.169
  HS02004478WS02006287       319.680       608.464        10.331         1.017         5.689
  HS02004817HS02004807        95.851       174.301         5.129         0.580         3.057
  HS02004807HS02004802       115.589       214.437         5.429         0.596         3.189
  YS02001759YS02001757       311.380       571.118         6.217         0.433         3.039
  YS02001762YS02001759       182.640       337.873         3.781         0.267         1.865
  YS02001765YS02001762       184.154       341.569         3.830         0.272         1.892
  YS02001770YS02001767       186.900       348.893         3.734         0.253         1.818
  YS02001774YS02001770       304.118       588.933         5.862         0.391         2.835
  YS02001779YS02001774       303.490       587.710         5.944         0.404         2.892
  YS02001649YS02001757       396.659       719.583         8.015         0.549         3.866
  YS02001767YS02001765       185.982       345.761         3.882         0.276         1.920
  YS02006561YS02001783      1019.273      1888.905        21.379         1.596        10.640
  YS02001783YS02001784      1019.166      1888.743        21.375         1.596        10.638
  YS02001784YS02001785      1026.502      1900.500        22.088         1.685        11.084
  YS02001788YS02001790      1027.142      1901.553        22.162         1.695        11.131
  YS02001790YS02001791      1028.212      1903.286        22.264         1.708        11.195
  YS02001791YS02001793      1028.157      1903.200        22.260         1.707        11.192
  YS02001910YS02001907       391.227       721.622         9.390         0.718         4.811
  YS02001786YS02001788      1026.723      1900.876        22.117         1.689        11.102
  YS02001915YS02001910       391.268       721.683         9.341         0.711         4.779
  YS02001918YS02001915       191.391       338.369         5.239         0.474         2.817
  YS02001923YS02001920       167.933       299.268         3.235         0.228         1.574
  YS02001926YS02001923       165.471       294.968         3.131         0.217         1.514
  YS02001929YS02001926       164.209       292.780         3.066         0.210         1.475
  YS02001920YS02001918       188.791       333.007         5.162         0.468         2.775
  YS02001629YS02163301        96.081       169.897         2.028         0.131         0.946
  YS02001619YS02001622       175.877       321.141         3.602         0.236         1.684
  YS02001622YS02001625       174.677       319.232         3.573         0.234         1.670
  YS02001625YS02001629        97.174       171.683         2.053         0.132         0.957
  YS02163301YS02001633        96.456       170.792         2.031         0.132         0.948
  YS02163601YS02164001       405.700       733.112         7.898         0.562         3.783
  YS02164001YS02001641       405.170       732.213         7.878         0.560         3.772
  YS02001641YS02001644       405.234       732.243         7.873         0.560         3.769
  YS02001647YS02001649       502.144       922.317        10.033         0.694         4.806
  YS02006553YS02006556       685.293      1259.219        14.752         1.130         7.427
  YS02006556YS02006558       685.234      1259.100        14.723         1.126         7.407
  YSB6556YSB1171              26.520        51.965         0.537         0.045         0.272
  YS02001907YS02006553       685.394      1259.429        14.760         1.131         7.432
  YS02006558YS02006561      1019.256      1888.870        21.378         1.596        10.640
  YS02001633YS02163601       406.408       734.210         7.879         0.558         3.767
  YS02001644YS02001647       507.750       932.497        10.114         0.699         4.842
  YS02001745YS02001748       250.135       467.639         5.508         0.382         2.739
  YS02001748YS02001751       247.785       463.284         5.516         0.387         2.753
  YS02001751YS02001754       246.903       461.819         5.511         0.388         2.754
  YS02001754YS02001757       247.676       462.979         5.676         0.410         2.861
  YS02001882YS02001884         2.610         4.492         0.053         0.004         0.027
  YS02001884YS02001887         6.971        12.348         0.137         0.011         0.068
  YS02001890YS02001895       451.137       846.776         8.305         0.625         4.051
  YS02001895YS02001898       451.001       846.615         8.299         0.624         4.047
  YS02001898YS02001901       450.822       846.312         8.295         0.624         4.046
  YS02001901YS02001904       450.680       846.120         8.301         0.625         4.050
  YS02001904YS02001907       450.911       846.480         8.354         0.632         4.085
  YS02001887YS02001890       468.387       880.984         8.648         0.653         4.224
  YS02001652YS02001649       202.032       375.239         4.071         0.293         1.909
  YS02001655YS02001652       202.714       376.337         4.089         0.294         1.917
  YS02001658YS02001655       202.305       375.658         4.004         0.283         1.862
  YS02001661YS02001658       205.936       382.081         4.079         0.288         1.897
  YS02001664YS02001661       218.336       402.512         4.359         0.307         2.025
  YSB1154YSB6556              26.084        51.268         0.486         0.038         0.239
  YSB1174YSB1171              18.020        35.560         0.361         0.029         0.181
  YSB1171HS02004479           46.088        90.050         1.040         0.092         0.540
  HS02004881HS02006253        51.564       102.747         1.109         0.080         0.544
  YS02001793JiankangQianchi      1027.869      1902.699        22.212         1.701        11.161
  YS02001757CaochengTiaoxuchi       518.702       941.647        10.924         0.789         5.378
  WSF200WS02003060           753.885      1413.856        20.039         1.776        10.593
  1                         2265.401      3912.893       145.410        17.130        88.021
  CC-Pump-1                  116.157       212.456         2.429         0.177         1.197
  CC-Pump-2                   41.896        76.582         0.875         0.064         0.431
  JK-Pump-1                  263.271       493.456         5.485         0.413         2.732
  JK-Pump-2                  541.418      1014.544        11.323         0.853         5.645
  XR-Pump-1                  380.137       629.166        31.340         3.835        19.344
  XR-Pump-2                  333.281       554.189        26.863         3.276        16.548
  XR-Pump-3                  333.281       554.189        26.863         3.276        16.548
  XR-Pump-4                  333.281       554.189        26.863         3.276        16.548
  

  Analysis begun on:  Thu Jul 15 23:38:39 2021
  Analysis ended on:  Thu Jul 15 23:38:42 2021
  Total elapsed time: 00:00:03