
  EPA STORM WATER MANAGEMENT MODEL - VERSION 5.1 (Build 5.3.0.dev0)
  --------------------------------------------------------------

  WARNING 04: minimum elevation drop used for Conduit WS02004404WS02004405
  WARNING 03: negative offset ignored for Link YS02001904YS02001907
  
  *********************************************************
  NOTE: The summary statistics displayed in this report are
  based on results found at every computational time step,  
  not just on results from each reporting time step.
  *********************************************************
  
  ****************
  Analysis Options
  ****************
  Flow Units ............... LPS
  Process Models:
    Rainfall/Runoff ........ YES
    RDII ................... NO
    Snowmelt ............... NO
    Groundwater ............ NO
    Flow Routing ........... YES
    Ponding Allowed ........ NO
    Water Quality .......... YES
  Infiltration Method ...... HORTON
  Flow Routing Method ...... DYNWAVE
  Surcharge Method ......... EXTRAN
  Starting Date ............ 08/28/2015 08:00:00
  Ending Date .............. 08/28/2015 15:50:00
  Antecedent Dry Days ...... 8.0
  Report Time Step ......... 00:01:00
  Wet Time Step ............ 00:01:00
  Dry Time Step ............ 00:01:00
  Routing Time Step ........ 5.00 sec
  Variable Time Step ....... YES
  Maximum Trials ........... 8
  Number of Threads ........ 4
  Head Tolerance ........... 0.001500 m
  
  
  **************************        Volume         Depth
  Runoff Quantity Continuity     hectare-m            mm
  **************************     ---------       -------
  Total Precipitation ......         6.144        13.452
  Evaporation Loss .........         0.000         0.000
  Infiltration Loss ........         1.064         2.328
  Surface Runoff ...........         4.147         9.079
  Final Storage ............         0.935         2.047
  Continuity Error (%) .....        -0.020
  
  
  **************************           COD            SS            TN            TP         NH4-N
  Runoff Quality Continuity             kg            kg            kg            kg            kg
  **************************    ----------    ----------    ----------    ----------    ----------
  Initial Buildup ..........     41378.656     70582.865      1804.177       168.684      1032.807
  Surface Buildup ..........        21.799        40.924         2.400         0.218         1.395
  Wet Deposition ...........         0.000         0.000         0.000         0.000         0.000
  Sweeping Removal .........         0.000         0.000         0.000         0.000         0.000
  Infiltration Loss ........        97.311       184.943         1.849         0.130         0.881
  BMP Removal ..............         0.000         0.000         0.000         0.000         0.000
  Surface Runoff ...........      3769.819      7064.251        72.781         4.964        34.599
  Remaining Buildup ........     37531.916     63371.884      1731.919       163.806       998.709
  Continuity Error (%) .....         0.003         0.004         0.002         0.001         0.001
  
  
  **************************        Volume        Volume
  Flow Routing Continuity        hectare-m      10^6 ltr
  **************************     ---------     ---------
  Dry Weather Inflow .......         0.616         6.165
  Wet Weather Inflow .......         4.145        41.453
  Groundwater Inflow .......         0.000         0.000
  RDII Inflow ..............         0.000         0.000
  External Inflow ..........         0.102         1.024
  External Outflow .........         1.790        17.901
  Flooding Loss ............         2.619        26.191
  Evaporation Loss .........         0.000         0.000
  Exfiltration Loss ........         0.000         0.000
  Initial Stored Volume ....         0.076         0.761
  Final Stored Volume ......         0.641         6.411
  Continuity Error (%) .....        -2.231
  
  
  **************************           COD            SS            TN            TP         NH4-N
  Quality Routing Continuity            kg            kg            kg            kg            kg
  **************************    ----------    ----------    ----------    ----------    ----------
  Dry Weather Inflow .......      1541.201      2465.922       147.955        18.494        92.472
  Wet Weather Inflow .......      3769.104      7063.050        72.765         4.963        34.592
  Groundwater Inflow .......         0.000         0.000         0.000         0.000         0.000
  RDII Inflow ..............         0.000         0.000         0.000         0.000         0.000
  External Inflow ..........       183.418       293.469        17.608         2.201        11.005
  External Outflow .........      2232.728      3850.852       145.604        17.203        88.263
  Flooding Loss ............      2543.281      4716.650        64.611         5.566        33.813
  Exfiltration Loss ........         0.000         0.000         0.000         0.000         0.000
  Mass Reacted .............         0.000         0.000         0.000         0.000         0.000
  Initial Stored Mass ......         0.000         0.000         0.000         0.000         0.000
  Final Stored Mass ........       591.391      1039.591        24.785         2.615        14.264
  Continuity Error (%) .....         2.299         2.192         1.397         1.074         1.253
  
  
  *************************
  Highest Continuity Errors
  *************************
  Node HS02004842 (13.41%)
  Node JK-storage (-10.68%)
  Node YS02001884 (10.29%)
  Node HS02004817 (2.53%)
  Node YSB1171 (2.46%)
  
  
  ***************************
  Time-Step Critical Elements
  ***************************
  Link WS02006252WS02006251 (35.20%)
  Link WS02006280WS02006229 (16.76%)
  Link YS02001793JiankangQianchi (14.44%)
  Link YS02006556YS02006558 (9.78%)
  Link WS02006238WS02006235 (8.86%)
  
  
  ********************************
  Highest Flow Instability Indexes
  ********************************
  Link WS02006113WS02006111 (49)
  Link YS02163601YS02164001 (42)
  Link YS02001629YS02163301 (40)
  Link YS02163301YS02001633 (40)
  Link YS02001619YS02001622 (39)
  
  
  *************************
  Routing Time Step Summary
  *************************
  Minimum Time Step           :     0.50 sec
  Average Time Step           :     1.79 sec
  Maximum Time Step           :     5.00 sec
  Percent in Steady State     :    -0.00
  Average Iterations per Step :     4.36
  Percent Not Converging      :    18.65
  
  
  ***************************
  Subcatchment Runoff Summary
  ***************************
  
  ------------------------------------------------------------------------------------------------------------------------------
                            Total      Total      Total      Total     Imperv       Perv      Total       Total     Peak  Runoff
                           Precip      Runon       Evap      Infil     Runoff     Runoff     Runoff      Runoff   Runoff   Coeff
  Subcatchment                 mm         mm         mm         mm         mm         mm         mm    10^6 ltr      LPS
  ------------------------------------------------------------------------------------------------------------------------------
  sub0                      13.45       0.00       0.00       0.63      12.47       0.31      12.77        0.01     3.75   0.950
  sub1                      13.45       0.00       0.00       1.12      11.88       0.36      12.24        0.08    25.66   0.910
  sub2                      13.45       0.00       0.00       4.44       8.39       0.53       8.92        0.08    25.29   0.663
  sub3                      13.45       0.00       0.00       4.56       8.35       0.42       8.77        0.20    55.75   0.652
  sub4                      13.45       0.00       0.00       1.22      11.71       0.26      11.97        0.25    65.52   0.890
  sub5                      13.45       0.00       0.00       0.68      12.41       0.26      12.67        0.14    44.76   0.942
  sub7                      13.45       0.00       0.00       0.86      12.18       0.35      12.53        0.04    14.26   0.931
  sub8                      13.45       0.00       0.00       0.87      12.17       0.34      12.50        0.08    26.26   0.930
  sub9                      13.45       0.00       0.00       0.88      12.17       0.33      12.50        0.06    19.64   0.929
  sub10                     13.45       0.00       0.00       0.78      12.29       0.29      12.58        0.14    44.00   0.935
  sub11                     13.45       0.00       0.00       0.77      12.30       0.31      12.61        0.15    48.45   0.938
  sub12                     13.45       0.00       0.00       1.25      11.66       0.50      12.16        0.11    38.10   0.904
  sub14                     13.45       0.00       0.00       0.88      12.16       0.33      12.49        0.12    38.67   0.929
  sub15                     13.45       0.00       0.00       3.37       9.35       0.66      10.01        0.17    57.01   0.744
  sub16                     13.45       0.00       0.00       3.56       8.97       0.88       9.85        0.10    37.63   0.732
  sub17                     13.45       0.00       0.00       3.47       9.10       0.84       9.94        0.09    30.67   0.739
  sub22                     13.45       0.00       0.00       4.98       7.63       0.81       8.43        0.53   184.54   0.627
  sub23                     13.45       0.00       0.00       4.17       8.43       0.81       9.24        0.44   154.22   0.687
  sub60                     13.45       0.00       0.00       1.53       9.85       0.09       9.93        3.01   438.14   0.738
  sub61                     13.45       0.00       0.00       2.16       9.95       0.12      10.07        3.11   536.45   0.749
  sub62                     13.45       0.00       0.00       0.98      10.84       0.10      10.94        3.36   552.35   0.813
  sub63                     13.45       0.00       0.00       3.77       8.69       0.14       8.83        2.67   492.63   0.656
  sub64                     13.45       0.00       0.00       1.93       9.45       0.09       9.54        2.90   416.72   0.709
  sub65                     13.45       0.00       0.00       1.67       9.61       0.08       9.70        2.98   423.09   0.721
  sub66                     13.45       0.00       0.00       3.81       8.10       0.09       8.18        2.51   380.66   0.608
  sub67                     13.45       0.00       0.00       0.95      11.38       0.13      11.51        3.55   679.52   0.856
  sub68                     13.45       0.00       0.00       1.75      10.45       0.13      10.59        3.26   586.26   0.787
  sub69                     13.45       0.00       0.00       1.83      10.79       0.19      10.98        2.57   544.72   0.816
  sub70                     13.45      11.20       0.00       7.51      14.65       0.88      15.52        3.55   494.81   0.630
  sub71                     13.45       0.00       0.00       0.99      10.58       0.09      10.67        2.52   389.24   0.793
  sub72                     13.45       0.00       0.00       0.89       8.56       0.05       8.61        1.75   189.18   0.640
  1                         13.45      15.11       0.00       1.37      16.56       4.63      21.19        4.98   484.42   0.742
  2                         13.45       0.00       0.00       3.02       3.21       1.96       5.17        2.07   340.45   0.384
  
  
  ****************************
  Subcatchment Washoff Summary
  ****************************
  
  ------------------------------------------------------------------------------------------
                                 COD            SS            TN            TP         NH4-N
  Subcatchment                    kg            kg            kg            kg            kg
  ------------------------------------------------------------------------------------------
  sub0                         2.670         5.197         0.046         0.004         0.022
  sub1                        11.241        22.423         0.210         0.015         0.101
  sub2                         6.894        13.384         0.145         0.010         0.067
  sub3                        16.924        32.573         0.350         0.024         0.161
  sub4                        25.772        51.904         0.510         0.031         0.245
  sub5                        25.778        50.682         0.460         0.035         0.223
  sub7                         5.751        11.638         0.108         0.007         0.052
  sub8                         8.581        17.755         0.171         0.010         0.082
  sub9                         7.353        15.005         0.142         0.009         0.068
  sub10                       21.202        42.223         0.389         0.028         0.188
  sub11                       20.657        41.614         0.386         0.026         0.187
  sub12                       17.724        35.094         0.321         0.024         0.155
  sub14                       15.732        31.800         0.298         0.020         0.144
  sub15                       20.231        39.321         0.389         0.028         0.182
  sub16                       13.129        25.518         0.249         0.019         0.117
  sub17                       12.049        23.208         0.222         0.017         0.105
  sub22                       62.582       119.432         1.186         0.090         0.554
  sub23                       36.683        72.439         0.776         0.051         0.357
  sub60                      243.520       456.962         4.842         0.298         2.321
  sub61                      302.151       564.434         5.627         0.386         2.710
  sub62                      313.722       596.076         6.119         0.388         2.938
  sub63                      223.275       410.850         4.468         0.314         2.075
  sub64                      305.877       553.773         5.626         0.410         2.687
  sub65                      313.037       569.066         5.795         0.415         2.772
  sub66                      176.068       321.340         3.608         0.236         1.687
  sub67                      466.222       877.505         8.365         0.616         4.045
  sub68                      332.037       626.413         6.347         0.429         3.034
  sub69                      298.258       568.561         5.590         0.393         2.674
  sub70                      502.897       962.303        10.037         0.699         4.710
  sub71                      206.745       396.330         4.242         0.246         2.030
  sub72                      164.385       293.107         3.069         0.210         1.476
  1                          349.075       671.606         7.102         0.495         3.297
  2                           42.749        75.577         1.214         0.073         0.518
  ------------------------------------------------------------------------------------------
  System                    4570.974      8595.115        88.408         6.057        41.983
  
  
  ******************
  Node Depth Summary
  ******************
  
  ---------------------------------------------------------------------------------
                                 Average  Maximum  Maximum  Time of Max    Reported
                                   Depth    Depth      HGL   Occurrence   Max Depth
  Node                 Type       Meters   Meters   Meters  days hr:min      Meters
  ---------------------------------------------------------------------------------
  WS02001211           JUNCTION     0.76     0.85     5.69     0  03:07        0.85
  WS02001212           JUNCTION     0.47     0.58     5.64     0  03:06        0.58
  WS02001213           JUNCTION     0.71     0.85     5.62     0  03:06        0.85
  WS02003069           JUNCTION     0.50     0.72     5.30     0  03:05        0.72
  WS02003072           JUNCTION     0.56     0.76     5.13     0  03:06        0.76
  WS02003073           JUNCTION     0.34     0.48     4.54     0  03:06        0.48
  WS02003060           JUNCTION     0.44     0.63     5.57     0  03:05        0.63
  WS02003066           JUNCTION     0.24     0.39     5.94     0  03:04        0.39
  WS02003059           JUNCTION     0.76     0.91     5.60     0  03:05        0.91
  WS02003067           JUNCTION     0.58     0.82     6.14     0  03:03        0.82
  WS02004401           JUNCTION     0.70     1.23     7.23     0  03:03        1.23
  WS02004402           JUNCTION     0.73     1.22     7.18     0  03:01        1.22
  WS02004403           JUNCTION     0.75     1.20     7.13     0  03:02        1.19
  WS02004404           JUNCTION     0.82     1.24     7.09     0  03:02        1.24
  WS02004406           JUNCTION     0.82     1.16     6.99     0  03:02        1.16
  WS02004409           JUNCTION     0.51     0.96     6.73     0  03:03        0.96
  WS02004410           JUNCTION     0.53     0.95     6.67     0  03:03        0.95
  WS02004411           JUNCTION     0.54     0.93     6.61     0  03:03        0.93
  WS02004412           JUNCTION     0.55     0.90     6.54     0  03:03        0.90
  WS02004413           JUNCTION     0.71     1.02     6.49     0  03:03        1.02
  WS02004405           JUNCTION     0.82     1.22     7.07     0  03:02        1.21
  WS02006109           JUNCTION     0.80     1.66     8.28     0  03:02        1.65
  WS02006110           JUNCTION     0.77     1.45     8.04     0  03:02        1.44
  WS02006111           JUNCTION     0.24     0.89     7.59     0  03:02        0.88
  WS02006112           JUNCTION     0.88     1.56     7.44     0  03:02        1.55
  WS02006113           JUNCTION     0.36     0.92     7.82     0  03:02        0.92
  WS02006115           JUNCTION     0.60     1.22     7.36     0  03:02        1.21
  WS02006116           JUNCTION     0.68     1.26     7.30     0  03:02        1.26
  WS02006230           JUNCTION     0.80     1.88     8.62     0  03:02        1.87
  WS02006231           JUNCTION     0.54     1.52     8.65     0  03:02        1.51
  WS02006232           JUNCTION     0.67     1.62     8.66     0  03:02        1.62
  WS02006234           JUNCTION     0.60     1.53     8.68     0  03:02        1.52
  WS02006235           JUNCTION     0.64     1.54     8.70     0  03:02        1.53
  WS02006238           JUNCTION     0.66     1.56     8.70     0  03:02        1.54
  WS02006240           JUNCTION     0.55     1.40     8.69     0  03:02        1.40
  WS02006242           JUNCTION     0.59     1.43     8.70     0  03:02        1.42
  WS02006243           JUNCTION     0.47     1.28     8.70     0  03:02        1.27
  WS02006245           JUNCTION     0.43     1.21     8.70     0  03:02        1.20
  WS02006247           JUNCTION     0.44     1.20     8.70     0  03:01        1.19
  WS02006248           JUNCTION     0.38     1.10     8.69     0  02:55        1.10
  WS02006249           JUNCTION     0.39     1.09     8.69     0  02:54        1.09
  WS02006239           JUNCTION     0.61     1.49     8.70     0  03:02        1.48
  WS02006251           JUNCTION     0.36     1.44     9.11     0  02:54        1.20
  WS02006252           JUNCTION     0.20     0.92     9.16     0  02:54        0.76
  WS02006253           JUNCTION     0.39     1.77     9.41     0  02:54        1.23
  WS02006256           JUNCTION     1.80     2.35     9.28     0  00:00        2.35
  WS02004138           JUNCTION     0.19     0.20     7.45     0  00:00        0.19
  WS02004139           JUNCTION     0.71     0.79     5.70     0  03:07        0.79
  WS02004407           JUNCTION     0.23     0.40     6.71     0  03:03        0.40
  WS02006228           JUNCTION     0.81     1.83     8.48     0  03:02        1.82
  WS02006229           JUNCTION     0.80     1.90     8.59     0  03:02        1.89
  WS02006280           JUNCTION     0.08     0.30     8.57     0  03:04        0.30
  WS02006284           JUNCTION     0.39     0.65     9.04     0  03:02        0.64
  WS02006287           JUNCTION     0.12     0.39     9.34     0  03:02        0.39
  WSF200               JUNCTION     0.23     0.44     5.67     0  03:04        0.44
  HS02004901           JUNCTION     0.14     0.38    10.20     0  03:01        0.37
  HS02004881           JUNCTION     0.01     0.05     9.08     0  03:01        0.05
  HS02004876           JUNCTION     0.06     0.16     9.19     0  03:01        0.16
  HS02004870           JUNCTION     0.02     0.09     9.38     0  03:01        0.09
  HS02004862           JUNCTION     0.03     0.11     9.49     0  03:01        0.11
  HS02004856           JUNCTION     0.08     0.15     9.58     0  03:01        0.15
  HS02004852           JUNCTION     0.02     0.07     9.59     0  03:02        0.07
  HS02004848           JUNCTION     0.01     0.07     9.67     0  03:01        0.07
  HS02004842           JUNCTION     0.34     0.40     9.67     0  03:01        0.40
  HS02004837           JUNCTION     0.03     0.09     9.67     0  03:01        0.09
  HS02004830           JUNCTION     0.05     0.10     9.57     0  03:01        0.10
  HS02004824           JUNCTION     0.03     0.13     9.53     0  03:02        0.13
  HS02004817           JUNCTION     0.45     0.69     9.54     0  03:02        0.69
  HS02004807           JUNCTION     0.14     0.36     9.53     0  03:02        0.36
  HS02004802           JUNCTION     0.18     0.39     9.52     0  03:02        0.39
  HS02004799           JUNCTION     0.15     0.46     9.68     0  03:01        0.46
  HS02004792           JUNCTION     0.05     0.22     9.74     0  03:01        0.21
  HS02004788           JUNCTION     0.04     0.16    10.05     0  03:02        0.16
  HS02004785           JUNCTION     0.06     0.25    10.15     0  03:02        0.25
  HS02004777           JUNCTION     0.16     0.39    10.19     0  03:01        0.39
  HS02004770           JUNCTION     0.14     0.37    10.20     0  03:01        0.36
  HS02004480           JUNCTION     0.10     0.38     9.62     0  03:01        0.38
  HS02004479           JUNCTION     0.14     0.42     9.62     0  03:01        0.42
  HS02004478           JUNCTION     0.08     0.28     9.50     0  03:01        0.28
  YS02001745           JUNCTION     0.69     0.94     8.46     0  03:19        0.94
  YS02001748           JUNCTION     1.07     1.39     8.46     0  03:18        1.38
  YS02001751           JUNCTION     1.24     1.58     8.45     0  03:13        1.57
  YS02001754           JUNCTION     1.49     1.84     8.45     0  03:18        1.84
  YS02001762           JUNCTION     1.68     2.04     8.44     0  03:18        2.03
  YS02001765           JUNCTION     1.63     1.99     8.44     0  02:54        1.98
  YS02001767           JUNCTION     1.60     1.95     8.43     0  03:01        1.93
  YS02001770           JUNCTION     1.59     1.93     8.43     0  03:00        1.92
  YS02001774           JUNCTION     1.66     1.98     8.41     0  02:59        1.98
  YS02001779           JUNCTION     1.41     1.68     8.37     0  02:40        1.68
  YS02001882           JUNCTION     0.67     1.64     8.35     0  03:00        1.63
  YS02001884           JUNCTION     0.76     1.74     8.35     0  03:01        1.72
  YS02001759           JUNCTION     1.71     2.08     8.44     0  02:54        2.07
  YS02001887           JUNCTION     0.84     1.81     8.35     0  03:00        1.81
  YS02001890           JUNCTION     0.87     1.81     8.32     0  02:45        1.81
  YS02001898           JUNCTION     0.63     1.56     8.30     0  02:55        1.56
  YS02001901           JUNCTION     0.75     1.68     8.29     0  03:00        1.67
  YS02001904           JUNCTION     0.73     1.64     8.27     0  02:59        1.63
  YS02001907           JUNCTION     1.05     1.96     8.25     0  02:45        1.96
  YS02001910           JUNCTION     0.84     1.79     8.30     0  02:46        1.77
  YS02001915           JUNCTION     0.65     1.61     8.32     0  02:46        1.58
  YS02001918           JUNCTION     0.37     1.29     8.36     0  02:46        1.25
  YS02001619           JUNCTION     1.21     1.49     8.42     0  03:00        1.48
  YS02001629           JUNCTION     1.54     1.85     8.39     0  02:54        1.84
  YS02001641           JUNCTION     1.64     1.94     8.38     0  02:40        1.93
  YS02001644           JUNCTION     1.64     1.92     8.35     0  02:39        1.92
  YS02001652           JUNCTION     1.50     2.11     8.71     0  02:43        1.97
  YS02001655           JUNCTION     1.27     2.12     8.97     0  02:43        1.89
  YS02001920           JUNCTION     0.47     1.37     8.38     0  02:46        1.32
  YS02001923           JUNCTION     0.29     1.14     8.40     0  02:46        1.09
  YS02001926           JUNCTION     0.33     0.94     8.39     0  02:46        0.90
  YS02001929           JUNCTION     0.20     0.70     8.40     0  02:46        0.69
  YS02001658           JUNCTION     1.01     2.08     9.23     0  02:43        1.76
  YS02001661           JUNCTION     0.80     1.98     9.38     0  04:17        1.65
  YS02001664           JUNCTION     0.36     0.57     8.49     0  04:32        0.56
  YS02001622           JUNCTION     1.23     1.50     8.41     0  02:59        1.50
  YS02001633           JUNCTION     1.63     1.95     8.40     0  02:40        1.94
  YS02001649           JUNCTION     1.69     2.05     8.44     0  02:43        2.04
  YS02001757           JUNCTION     1.81     2.18     8.44     0  03:18        2.18
  YS02001895           JUNCTION     0.63     1.57     8.31     0  02:52        1.56
  YS02001625           JUNCTION     1.50     1.78     8.38     0  02:38        1.78
  YS02163301           JUNCTION     1.57     1.88     8.40     0  02:57        1.88
  YS02163601           JUNCTION     1.68     1.99     8.39     0  03:00        1.98
  YS02164001           JUNCTION     1.62     1.92     8.38     0  02:40        1.92
  YS02001647           JUNCTION     1.48     1.80     8.41     0  02:51        1.78
  YSB1154              JUNCTION     0.28     0.57     9.62     0  03:01        0.57
  YSB6556              JUNCTION     0.17     0.45     9.62     0  03:02        0.45
  YSB1174              JUNCTION     0.23     0.52     9.62     0  03:01        0.51
  YSB1171              JUNCTION     0.43     0.72     9.62     0  03:01        0.72
  YS02006553           JUNCTION     1.05     1.97     8.25     0  02:56        1.97
  YS02006561           JUNCTION     0.39     1.08     7.74     0  02:45        1.07
  YS02006556           JUNCTION     1.02     1.93     8.24     0  03:00        1.93
  YS02006558           JUNCTION     1.06     1.98     8.25     0  03:00        1.97
  YS02001783           JUNCTION     0.63     1.63     7.77     0  02:32        1.46
  YS02001784           JUNCTION     0.64     1.48     7.54     0  02:32        1.41
  YS02001786           JUNCTION     0.57     1.58     7.61     0  02:32        1.25
  YS02001788           JUNCTION     0.49     1.31     7.28     0  02:32        1.12
  YS02001790           JUNCTION     0.61     1.73     7.37     0  02:31        1.29
  YS02001791           JUNCTION     0.56     1.56     7.03     0  02:30        1.27
  YS02001793           JUNCTION     0.76     1.89     6.72     0  02:32        1.80
  WSC                  OUTFALL      0.34     0.48     1.15     0  03:07        0.48
  JK-storage           STORAGE      2.94     5.80     6.60     0  02:31        5.80
  CC-storage           STORAGE      1.07     1.45     8.45     0  03:18        1.45
  XR-storage           STORAGE      6.30     7.72     5.72     0  02:59        7.72
  
  
  *******************
  Node Inflow Summary
  *******************
  
  -------------------------------------------------------------------------------------------------
                                  Maximum  Maximum                  Lateral       Total        Flow
                                  Lateral    Total  Time of Max      Inflow      Inflow     Balance
                                   Inflow   Inflow   Occurrence      Volume      Volume       Error
  Node                 Type           LPS      LPS  days hr:min    10^6 ltr    10^6 ltr     Percent
  -------------------------------------------------------------------------------------------------
  WS02001211           JUNCTION      7.35   391.95     0  03:17       0.207        10.1       0.397
  WS02001212           JUNCTION      0.00   396.68     0  03:16           0          10       0.241
  WS02001213           JUNCTION      0.00   400.81     0  03:17           0          10       0.276
  WS02003069           JUNCTION      0.32  1331.29     0  03:05     0.00902          18       0.181
  WS02003072           JUNCTION      0.00  1330.97     0  03:05           0        17.9       0.220
  WS02003073           JUNCTION      1.82  1332.93     0  03:06      0.0514        17.9       0.251
  WS02003060           JUNCTION     16.53  1331.10     0  03:04       0.466          18       0.172
  WS02003066           JUNCTION      0.00   938.52     0  03:04           0        7.58       0.053
  WS02003059           JUNCTION      0.00   406.17     0  03:17           0        9.99       0.392
  WS02003067           JUNCTION      0.00   938.05     0  03:04           0        7.59       0.115
  WS02004401           JUNCTION      0.00   940.06     0  03:02           0         7.8       0.255
  WS02004402           JUNCTION      0.00   939.44     0  03:02           0        7.78       0.243
  WS02004403           JUNCTION      0.00   939.81     0  03:02           0        7.76       0.221
  WS02004404           JUNCTION      0.16   940.55     0  03:02     0.00457        7.75       0.169
  WS02004406           JUNCTION      0.00   939.77     0  03:02           0        7.72       0.413
  WS02004409           JUNCTION      0.00   939.46     0  03:03           0        7.68       0.189
  WS02004410           JUNCTION      0.00   938.24     0  03:03           0        7.67       0.217
  WS02004411           JUNCTION      0.00   937.82     0  03:03           0        7.65       0.225
  WS02004412           JUNCTION      0.00   937.53     0  03:03           0        7.63       0.246
  WS02004413           JUNCTION      0.00   937.95     0  03:04           0        7.61       0.370
  WS02004405           JUNCTION      0.04   940.72     0  03:02     0.00107        7.74       0.251
  WS02006109           JUNCTION      1.23   915.28     0  03:03      0.0347        7.83       0.232
  WS02006110           JUNCTION      0.00   915.34     0  03:02           0        7.81       0.225
  WS02006111           JUNCTION      0.00   915.67     0  03:02           0        7.78       0.047
  WS02006112           JUNCTION     30.67   939.36     0  03:02      0.0853        7.87       0.371
  WS02006113           JUNCTION      0.00   915.45     0  03:02           0        7.79       0.111
  WS02006115           JUNCTION      0.00   939.25     0  03:02           0        7.84       0.239
  WS02006116           JUNCTION      0.00   939.99     0  03:02           0        7.82       0.204
  WS02006230           JUNCTION     10.28   527.28     0  04:12        0.29        5.41       0.261
  WS02006231           JUNCTION      0.00   517.00     0  04:13           0        5.12       0.115
  WS02006232           JUNCTION      0.00   517.13     0  04:12           0        5.14       0.346
  WS02006234           JUNCTION      0.00   517.16     0  04:12           0        5.14       0.094
  WS02006235           JUNCTION      0.00   517.49     0  04:10           0        5.29       0.220
  WS02006238           JUNCTION      0.00   323.25     0  04:13           0        1.83       0.357
  WS02006240           JUNCTION      0.00   323.06     0  04:13           0        1.72       0.499
  WS02006242           JUNCTION      0.00   323.13     0  04:14           0        1.68       0.569
  WS02006243           JUNCTION      0.00   323.13     0  04:13           0        1.65       0.171
  WS02006245           JUNCTION      0.00   323.22     0  04:12           0        1.64       0.336
  WS02006247           JUNCTION      0.00   323.29     0  04:14           0        1.63       0.120
  WS02006248           JUNCTION      0.00   323.30     0  04:14           0        1.63      -0.044
  WS02006249           JUNCTION      0.00   537.53     0  03:00           0        1.92       0.108
  WS02006239           JUNCTION      0.00   323.06     0  04:13           0        1.78       0.502
  WS02006251           JUNCTION      0.08   535.60     0  03:00     0.00217        1.93      -0.038
  WS02006252           JUNCTION      0.00   400.00     0  04:00           0        1.44       0.012
  WS02006253           JUNCTION      3.75   167.89     0  03:40      0.0103       0.486      -0.053
  WS02006256           JUNCTION      0.00   983.00     0  02:50           0        9.91      -0.000
  WS02004138           JUNCTION      0.00   380.00     0  00:00           0        9.92       0.062
  WS02004139           JUNCTION      0.32   395.85     0  00:00     0.00905        9.92       0.456
  WS02004407           JUNCTION      0.00   939.95     0  03:02           0        7.69       0.085
  WS02006228           JUNCTION      0.00   913.97     0  03:02           0        7.81       0.185
  WS02006229           JUNCTION      0.00   916.78     0  03:01           0        7.82       0.178
  WS02006280           JUNCTION      0.00   680.21     0  03:02           0        2.43       0.007
  WS02006284           JUNCTION      0.10   679.07     0  03:02      0.0027        2.43       0.046
  WS02006287           JUNCTION      0.00   677.70     0  03:02           0        2.43       0.030
  WSF200               JUNCTION      0.00   938.65     0  03:04           0        7.57       0.048
  HS02004901           JUNCTION     37.63    37.63     0  03:01       0.103       0.103       1.740
  HS02004881           JUNCTION     14.26   140.55     0  03:01      0.0422       0.463       0.087
  HS02004876           JUNCTION     25.66   127.65     0  03:01      0.0814       0.422       0.131
  HS02004870           JUNCTION     26.26   103.59     0  03:01      0.0799        0.34       0.034
  HS02004862           JUNCTION     25.49    79.37     0  03:01      0.0888       0.261       0.067
  HS02004856           JUNCTION     19.64    55.42     0  03:01      0.0601       0.173       0.844
  HS02004852           JUNCTION      0.00    37.84     0  03:01           0       0.113       0.053
  HS02004848           JUNCTION     55.75    55.75     0  03:01       0.197       0.197       0.027
  HS02004842           JUNCTION      0.00    16.84     0  03:01           0       0.097      15.491
  HS02004837           JUNCTION     50.35    65.69     0  03:01       0.318       0.402       0.204
  HS02004830           JUNCTION      0.15    64.80     0  03:01     0.00423       0.392       0.316
  HS02004824           JUNCTION     65.57   128.45     0  03:01       0.251       0.642       0.085
  HS02004817           JUNCTION      0.60   124.47     0  03:01      0.0169       0.658       2.600
  HS02004807           JUNCTION     48.45   165.77     0  03:01       0.147       0.788       0.554
  HS02004802           JUNCTION      0.00   165.31     0  03:04           0       0.785       0.507
  HS02004799           JUNCTION     38.67   446.06     0  03:01       0.119        1.42       0.191
  HS02004792           JUNCTION    184.82   411.88     0  03:01        0.54         1.3       0.033
  HS02004788           JUNCTION     58.68   233.42     0  03:02       0.219       0.758       0.053
  HS02004785           JUNCTION      0.15   182.21     0  03:01     0.00423        0.54       0.093
  HS02004777           JUNCTION      0.03   185.01     0  03:01    0.000846       0.541       0.971
  HS02004770           JUNCTION    154.22   188.92     0  03:01       0.441       0.542       0.577
  HS02004480           JUNCTION      0.00   517.24     0  03:01           0        1.66       0.070
  HS02004479           JUNCTION      0.00    75.44     0  03:02           0       0.258       0.286
  HS02004478           JUNCTION      0.00   677.12     0  03:02           0        2.43       0.012
  YS02001745           JUNCTION    438.14   438.14     0  03:01        3.01        3.01       0.377
  YS02001748           JUNCTION      0.04   441.30     0  03:01     0.00127           3       0.744
  YS02001751           JUNCTION      0.01   441.29     0  03:01     0.00031        2.98       0.791
  YS02001754           JUNCTION      0.26   441.22     0  03:01     0.00733        2.96       0.852
  YS02001762           JUNCTION      0.00   312.57     0  02:43           0        2.02       1.080
  YS02001765           JUNCTION      0.00   313.18     0  02:43           0        2.03       1.228
  YS02001767           JUNCTION      0.54   313.22     0  02:43      0.0151        2.05       1.793
  YS02001770           JUNCTION    552.50   668.74     0  03:19        3.37        3.94       0.826
  YS02001774           JUNCTION      0.00   669.27     0  03:18           0        2.44       1.042
  YS02001779           JUNCTION      0.01   668.87     0  03:19    0.000141        2.41       0.645
  YS02001882           JUNCTION      0.00    29.32     0  02:39           0      0.0229      10.657
  YS02001884           JUNCTION      0.00    57.67     0  02:33           0      0.0602      11.472
  YS02001759           JUNCTION    536.49   619.68     0  02:43        3.11        4.53       0.512
  YS02001887           JUNCTION    679.97   680.44     0  03:01        3.56         3.6       0.235
  YS02001890           JUNCTION      0.00   680.19     0  03:01           0        3.55       0.261
  YS02001898           JUNCTION      0.00   518.42     0  02:57           0        3.45       0.086
  YS02001901           JUNCTION      0.00   518.11     0  02:57           0        3.45       0.209
  YS02001904           JUNCTION      0.00   518.26     0  02:57           0        3.44       0.179
  YS02001907           JUNCTION      0.00  1097.23     0  03:01           0        7.77       0.311
  YS02001910           JUNCTION      0.00   580.23     0  03:01           0        4.34       0.270
  YS02001915           JUNCTION    389.26   579.77     0  03:01        2.52        4.37       0.141
  YS02001918           JUNCTION      0.00   240.73     0  02:47           0        1.87       0.104
  YS02001619           JUNCTION    380.66   380.66     0  03:01        2.51        2.51       0.494
  YS02001629           JUNCTION      0.00   197.24     0  02:39           0        1.59       1.859
  YS02001641           JUNCTION      0.00   415.79     0  02:39           0        4.45       0.477
  YS02001644           JUNCTION    416.76  1490.76     0  03:01         2.9        12.5       0.211
  YS02001652           JUNCTION      0.00   502.39     0  03:01           0        2.62       0.894
  YS02001655           JUNCTION      0.15   501.95     0  03:01     0.00434        2.64       0.959
  YS02001920           JUNCTION      2.87   240.33     0  02:47      0.0809        1.86       0.167
  YS02001923           JUNCTION      0.04   239.98     0  02:47     0.00106        1.76       0.054
  YS02001926           JUNCTION      0.05   210.51     0  02:47     0.00147        1.76       0.190
  YS02001929           JUNCTION    189.18   189.18     0  03:01        1.75        1.75       0.036
  YS02001658           JUNCTION      0.00   501.74     0  03:01           0        2.66       0.911
  YS02001661           JUNCTION      0.00   647.90     0  02:45           0        2.86       0.046
  YS02001664           JUNCTION    492.63   492.63     0  03:01        2.67        2.87       0.219
  YS02001622           JUNCTION      0.00   381.55     0  03:01           0         2.5       1.291
  YS02001633           JUNCTION    423.29   423.29     0  03:01        2.99        4.52       0.721
  YS02001649           JUNCTION      0.00   870.95     0  02:40           0        6.89       0.543
  YS02001757           JUNCTION      0.00  1677.83     0  02:40           0        8.77       1.062
  YS02001895           JUNCTION      0.00   518.55     0  02:57           0        3.45       0.153
  YS02001625           JUNCTION      0.00   408.46     0  03:01           0        2.48       1.602
  YS02163301           JUNCTION      0.00   198.07     0  02:39           0        1.57       1.578
  YS02163601           JUNCTION      0.11   414.66     0  02:39      0.0031        4.48       0.684
  YS02164001           JUNCTION      0.00   415.23     0  02:39           0        4.45       0.466
  YS02001647           JUNCTION      0.00   776.58     0  03:20           0        6.26       0.457
  YSB1154              JUNCTION     44.76    44.76     0  03:01       0.144       0.144       1.016
  YSB6556              JUNCTION      0.00    43.28     0  03:01           0       0.145       0.869
  YSB1174              JUNCTION     38.10    38.10     0  03:01       0.106       0.107       1.221
  YSB1171              JUNCTION      0.00    76.92     0  03:01           0       0.257       2.525
  YS02006553           JUNCTION      0.00   708.07     0  03:46           0        6.69       0.236
  YS02006561           JUNCTION      0.00   983.73     0  03:00           0        9.91       0.009
  YS02006556           JUNCTION      0.00   708.11     0  03:46           0        6.69       0.167
  YS02006558           JUNCTION    587.14   984.89     0  03:01        3.28        9.94       0.052
  YS02001783           JUNCTION      0.00   983.52     0  03:01           0        9.91       0.020
  YS02001784           JUNCTION      1.06   984.80     0  03:00      0.0299        9.94       0.034
  YS02001786           JUNCTION      0.06   984.67     0  03:00     0.00159        9.94       0.036
  YS02001788           JUNCTION      0.07   985.07     0  02:59       0.002        9.94       0.022
  YS02001790           JUNCTION      0.15   985.19     0  03:00     0.00437        9.94       0.011
  YS02001791           JUNCTION      0.00   984.87     0  03:00           0        9.94       0.014
  YS02001793           JUNCTION      0.00   985.30     0  03:01           0        9.94      -0.011
  WSC                  OUTFALL       0.00  1333.28     0  03:07           0        17.9       0.000
  JK-storage           STORAGE       0.00   985.54     0  02:59           0        10.1      -9.646
  CC-storage           STORAGE       0.00  1678.61     0  02:40           0        5.48       1.200
  XR-storage           STORAGE    1024.87  1024.87     0  03:01        12.7        13.3      -0.004
  
  
  **********************
  Node Surcharge Summary
  **********************
  
  Surcharging occurs when water rises above the top of the highest conduit.
  ---------------------------------------------------------------------
                                               Max. Height   Min. Depth
                                   Hours       Above Crown    Below Rim
  Node                 Type      Surcharged         Meters       Meters
  ---------------------------------------------------------------------
  WS02004401           JUNCTION        0.36          0.234        1.426
  WS02004402           JUNCTION        0.39          0.223        1.517
  WS02004403           JUNCTION        0.39          0.201        1.829
  WS02004404           JUNCTION        0.53          0.244        2.536
  WS02004406           JUNCTION        0.48          0.163        2.287
  WS02004413           JUNCTION        0.18          0.023        2.177
  WS02004405           JUNCTION        0.51          0.219        2.581
  WS02006109           JUNCTION        2.61          0.838        0.982
  WS02006110           JUNCTION        1.38          0.543        1.307
  WS02006111           JUNCTION        0.13          0.075        1.795
  WS02006112           JUNCTION        1.82          0.560        1.120
  WS02006113           JUNCTION        0.16          0.122        1.808
  WS02006115           JUNCTION        0.30          0.207        2.043
  WS02006116           JUNCTION        0.31          0.202        2.088
  WS02006230           JUNCTION        1.01          0.797        0.773
  WS02006231           JUNCTION        1.24          0.815        0.715
  WS02006232           JUNCTION        2.06          0.925        0.555
  WS02006234           JUNCTION        1.53          0.806        0.434
  WS02006235           JUNCTION        1.61          0.830        0.460
  WS02006238           JUNCTION        1.63          0.836        0.594
  WS02006240           JUNCTION        1.38          0.691        0.699
  WS02006242           JUNCTION        1.41          0.698        0.122
  WS02006243           JUNCTION        1.14          0.570        0.200
  WS02006245           JUNCTION        1.04          0.502        0.348
  WS02006247           JUNCTION        1.04          0.486        0.274
  WS02006248           JUNCTION        0.93          0.380        0.000
  WS02006249           JUNCTION        0.97          0.390        0.000
  WS02006239           JUNCTION        1.47          0.748        0.542
  WS02006251           JUNCTION        0.58          0.413        0.767
  WS02006252           JUNCTION        0.86          0.522        0.578
  WS02006253           JUNCTION        0.62          0.731        1.749
  WS02006256           JUNCTION        6.26          2.050        0.000
  WS02006228           JUNCTION        2.60          0.998        1.202
  YS02001748           JUNCTION        5.22          0.305        0.885
  YS02001751           JUNCTION        5.38          0.575        0.625
  YS02001754           JUNCTION        5.58          0.792        0.358
  YS02001762           JUNCTION        5.75          1.044        0.106
  YS02001765           JUNCTION        5.72          0.989        0.111
  YS02001767           JUNCTION        5.69          0.946        0.084
  YS02001770           JUNCTION        5.68          0.901        0.019
  YS02001774           JUNCTION        5.74          0.984        0.066
  YS02001779           JUNCTION        5.56          0.680        0.000
  YS02001882           JUNCTION        1.12          0.636        0.194
  YS02001884           JUNCTION        1.14          0.677        0.193
  YS02001759           JUNCTION        5.78          1.079        0.131
  YS02001887           JUNCTION        1.21          0.763        0.187
  YS02001890           JUNCTION        1.23          0.760        0.000
  YS02001898           JUNCTION        1.09          0.532        0.208
  YS02001901           JUNCTION        1.18          0.676        0.194
  YS02001904           JUNCTION        1.16          0.637        0.213
  YS02001907           JUNCTION        1.90          0.950        0.000
  YS02001910           JUNCTION        1.27          0.790        0.310
  YS02001915           JUNCTION        1.11          0.605        0.395
  YS02001918           JUNCTION        0.94          0.292        0.518
  YS02001619           JUNCTION        5.40          0.487        0.123
  YS02001629           JUNCTION        5.40          0.465        0.005
  YS02001641           JUNCTION        5.73          0.939        0.161
  YS02001644           JUNCTION        5.73          0.920        0.000
  YS02001652           JUNCTION        5.61          1.080        0.050
  YS02001655           JUNCTION        5.41          1.124        0.076
  YS02001920           JUNCTION        0.96          0.374        0.766
  YS02001658           JUNCTION        5.24          1.084        0.216
  YS02001661           JUNCTION        0.11          0.909        0.481
  YS02001622           JUNCTION        5.41          0.504        0.116
  YS02001633           JUNCTION        5.71          0.925        0.135
  YS02001649           JUNCTION        5.75          1.050        0.000
  YS02001757           JUNCTION        5.86          1.180        0.030
  YS02001895           JUNCTION        1.10          0.567        0.183
  YS02001625           JUNCTION        5.64          0.780        0.000
  YS02163301           JUNCTION        5.68          0.883        0.147
  YS02163601           JUNCTION        5.75          0.990        0.090
  YS02164001           JUNCTION        5.72          0.921        0.179
  YS02001647           JUNCTION        5.62          0.801        0.099
  YS02006553           JUNCTION        1.97          0.969        0.221
  YS02006561           JUNCTION        0.99          0.283        0.867
  YS02006556           JUNCTION        1.48          0.892        0.458
  YS02006558           JUNCTION        1.45          0.879        0.521
  YS02001783           JUNCTION        1.33          0.833        0.767
  YS02001784           JUNCTION        1.31          0.675        0.815
  YS02001786           JUNCTION        1.26          0.782        0.648
  YS02001788           JUNCTION        1.20          0.505        0.975
  YS02001790           JUNCTION        2.31          0.928        0.229
  YS02001791           JUNCTION        2.39          0.758        1.162
  YS02001793           JUNCTION        2.65          0.891        1.709
  
  
  *********************
  Node Flooding Summary
  *********************
  
  Flooding refers to all water that overflows a node, whether it ponds or not.
  --------------------------------------------------------------------------
                                                             Total   Maximum
                                 Maximum   Time of Max       Flood    Ponded
                        Hours       Rate    Occurrence      Volume     Depth
  Node                 Flooded       LPS   days hr:min    10^6 ltr    Meters
  --------------------------------------------------------------------------
  WS02006248              0.08     15.15      0  03:03       0.002     0.000
  WS02006249              0.57    424.54      0  03:00       0.290     0.000
  WS02006256              3.59    830.96      0  03:02       6.331     0.000
  YS02001779              3.06    668.81      0  03:19       2.396     0.000
  YS02001890              0.34    163.16      0  03:01       0.085     0.000
  YS02001907              0.81    699.72      0  03:01       1.071     0.000
  YS02001644              5.16   1490.36      0  03:01      11.287     0.000
  YS02001649              0.02     36.33      0  02:43       0.001     0.000
  YS02001625              1.40    408.26      0  03:01       0.855     0.000
  JK-storage              1.15    780.90      0  02:40       1.258     0.000
  XR-storage              3.46    644.85      0  03:01       2.615     0.000
  
  
  **********************
  Storage Volume Summary
  **********************
  
  --------------------------------------------------------------------------------------------------
                         Average     Avg  Evap Exfil       Maximum     Max    Time of Max    Maximum
                          Volume    Pcnt  Pcnt  Pcnt        Volume    Pcnt     Occurrence    Outflow
  Storage Unit           1000 m3    Full  Loss  Loss       1000 m3    Full    days hr:min        LPS
  --------------------------------------------------------------------------------------------------
  JK-storage               0.148      51     0     0         0.291     100       0  02:31     983.00
  CC-storage               2.995      19     0     0         4.028      26       0  03:18     400.00
  XR-storage               0.756      82     0     0         0.926     100       0  02:59     380.00
  
  
  ***********************
  Outfall Loading Summary
  ***********************
  
  ---------------------------------------------------------------------------------------------------------------------------------
                         Flow       Avg       Max       Total         Total         Total         Total         Total         Total
                         Freq      Flow      Flow      Volume           COD            SS            TN            TP         NH4-N
  Outfall Node           Pcnt       LPS       LPS    10^6 ltr            kg            kg            kg            kg            kg
  ---------------------------------------------------------------------------------------------------------------------------------
  WSC                   99.97    746.56   1333.28      17.901      2232.932      3851.183       145.622        17.205        88.275
  ---------------------------------------------------------------------------------------------------------------------------------
  System                99.97    746.56   1333.28      17.901      2232.932      3851.183       145.622        17.205        88.275
  
  
  ********************
  Link Flow Summary
  ********************
  
  -----------------------------------------------------------------------------
                                 Maximum  Time of Max   Maximum    Max/    Max/
                                  |Flow|   Occurrence   |Veloc|    Full    Full
  Link                 Type          LPS  days hr:min     m/sec    Flow   Depth
  -----------------------------------------------------------------------------
  WS02003066WSF200     CONDUIT    938.65     0  03:04      3.00    0.16    0.32
  WS02006287WS02006284 CONDUIT    678.98     0  03:02      2.38    0.31    0.39
  WS02006284WS02006280 CONDUIT    680.21     0  03:02      2.62    0.28    0.37
  WS02006280WS02006229 CONDUIT    680.29     0  03:02      3.87    0.15    0.50
  WS02006229WS02006228 CONDUIT    913.97     0  03:02      1.82    3.03    1.00
  WS02006256WS02006235 CONDUIT    288.92     0  00:00      4.23    3.06    1.00
  WS02006253WS02006251 CONDUIT    154.12     0  03:40      0.64    0.46    1.00
  WS02006252WS02006251 CONDUIT    400.94     0  04:00      3.19    1.47    1.00
  WS02006251WS02006249 CONDUIT    537.53     0  03:00      1.40    1.55    1.00
  WS02006249WS02006248 CONDUIT    323.30     0  04:14      1.02    1.77    1.00
  WS02006248WS02006247 CONDUIT    323.29     0  04:14      0.95    0.70    1.00
  WS02006247WS02006245 CONDUIT    323.22     0  04:12      0.88    2.56    1.00
  WS02006245WS02006243 CONDUIT    323.13     0  04:13      0.96    0.96    1.00
  WS02006243WS02006242 CONDUIT    323.13     0  04:14      0.84    0.69    1.00
  WS02006242WS02006240 CONDUIT    323.06     0  04:13      0.91    1.28    1.00
  WS02006240WS02006239 CONDUIT    323.06     0  04:13      0.84    1.02    1.00
  WS02006239WS02006238 CONDUIT    323.25     0  04:13      0.87    1.03    1.00
  WS02006238WS02006235 CONDUIT    323.68     0  04:10      1.45    0.72    1.00
  WS02006235WS02006234 CONDUIT    517.16     0  04:12      1.34    5.46    1.00
  WS02006234WS02006232 CONDUIT    517.13     0  04:12      1.39    1.05    1.00
  WS02006232WS02006231 CONDUIT    517.00     0  04:13      1.34    1.08    1.00
  WS02006231WS02006230 CONDUIT    517.00     0  04:12      1.35    7.84    1.00
  WS02006230WS02006229 CONDUIT    527.18     0  04:14      1.37   11.73    1.00
  WS02006228WS02006109 CONDUIT    914.05     0  03:03      1.82    3.99    1.00
  WS02006116WS02004401 CONDUIT    940.06     0  03:02      1.20    1.30    1.00
  WS02006115WS02006116 CONDUIT    939.99     0  03:02      1.20    1.21    1.00
  WS02006113WS02006111 CONDUIT    915.67     0  03:02      2.60    1.10    1.00
  WS02006112WS02006115 CONDUIT    939.25     0  03:02      1.20    0.55    1.00
  WS02006111WS02006112 CONDUIT    915.99     0  03:02      1.82    0.44    1.00
  WS02006110WS02006113 CONDUIT    915.45     0  03:02      1.82    0.83    1.00
  WS02006109WS02006110 CONDUIT    915.34     0  03:02      1.82    1.76    1.00
  WS02004411WS02004412 CONDUIT    937.53     0  03:03      1.24    1.33    0.92
  WS02004401WS02004402 CONDUIT    939.44     0  03:02      1.20    1.13    1.00
  WS02004413WS02003067 CONDUIT    938.05     0  03:04      1.55    0.40    0.72
  WS02004412WS02004413 CONDUIT    937.95     0  03:04      1.22    0.63    0.95
  WS02004410WS02004411 CONDUIT    937.82     0  03:03      1.23    1.28    0.94
  WS02004409WS02004410 CONDUIT    938.24     0  03:03      1.21    1.21    0.95
  WS02004407WS02004409 CONDUIT    939.46     0  03:03      1.68    0.33    0.68
  WS02004406WS02004407 CONDUIT    939.95     0  03:02      1.60    0.42    0.70
  WS02004405WS02004406 CONDUIT    939.77     0  03:02      1.20    1.85    1.00
  WS02004404WS02004405 CONDUIT    940.68     0  03:02      1.20    9.22    1.00
  WS02004403WS02004404 CONDUIT    940.38     0  03:02      1.20    0.68    1.00
  WS02004402WS02004403 CONDUIT    939.81     0  03:02      1.20    1.35    1.00
  WS02004139WS02001211 CONDUIT    384.60     0  03:17      0.90    0.49    0.64
  WS02004138WS02004139 CONDUIT    395.52     0  00:00      3.64    0.08    0.47
  WS02003067WS02003066 CONDUIT    938.52     0  03:04      1.65    0.30    0.50
  WS02001213WS02003059 CONDUIT    406.17     0  03:17      0.89    0.67    0.87
  WS02001212WS02001213 CONDUIT    400.81     0  03:17      1.32    0.62    0.56
  WS02001211WS02001212 CONDUIT    396.68     0  03:16      0.78    0.30    0.71
  WS02003072WS02003073 CONDUIT   1331.11     0  03:06      1.96    2.88    0.58
  WS02003069WS02003072 CONDUIT   1330.97     0  03:05      1.82    0.64    0.62
  WS02003060WS02003069 CONDUIT   1330.97     0  03:05      2.03    0.52    0.56
  WS02003059WS02003060 CONDUIT    412.87     0  03:16      0.95    0.27    0.77
  HS02004901HS02004770 CONDUIT     37.22     0  03:01      0.10    0.14    0.53
  HS02004876HS02004881 CONDUIT    127.65     0  03:01      1.21    1.36    0.15
  HS02004870HS02004876 CONDUIT    103.11     0  03:01      0.82    0.07    0.18
  HS02004842HS02004848 CONDUIT     16.84     0  03:01      0.07    0.01    0.33
  HS02004837HS02004842 CONDUIT     17.91     0  03:03      0.42    0.01    0.35
  HS02004830HS02004837 CONDUIT     64.65     0  03:01      0.67    0.06    0.14
  HS02004824HS02004830 CONDUIT     64.13     0  03:02      0.62    0.08    0.16
  HS02004817HS02004824 CONDUIT    123.87     0  03:01      0.31    0.06    0.58
  HS02004770HS02004777 CONDUIT    184.98     0  03:01      0.49    0.34    0.54
  HS02004799HS02004480 CONDUIT    444.37     0  03:01      1.07    0.56    0.60
  HS02004792HS02004799 CONDUIT    408.48     0  03:01      1.20    0.25    0.49
  HS02004788HS02004792 CONDUIT    232.95     0  03:02      1.28    0.15    0.26
  HS02004785HS02004788 CONDUIT    181.79     0  03:02      0.91    1.37    0.29
  HS02004777HS02004785 CONDUIT    182.06     0  03:01      0.57    0.22    0.45
  HS02004480HS02004478 CONDUIT    517.39     0  03:01      1.55    2.18    0.48
  HS02004479HS02004480 CONDUIT     77.32     0  03:02      0.30    0.07    0.57
  HS02004862HS02004870 CONDUIT     79.03     0  03:01      0.80    0.09    0.14
  HS02004848HS02004852 CONDUIT     37.84     0  03:01      0.53    0.04    0.10
  HS02004856HS02004862 CONDUIT     54.77     0  03:01      0.59    0.05    0.13
  HS02004852HS02004856 CONDUIT     37.76     0  03:02      0.34    0.04    0.16
  HS02004802HS02004478 CONDUIT    170.17     0  03:04      0.54    0.15    0.48
  HS02004478WS02006287 CONDUIT    677.70     0  03:02      2.11    0.19    0.36
  HS02004817HS02004807 CONDUIT    128.12     0  03:04      0.25    0.08    0.75
  HS02004807HS02004802 CONDUIT    165.31     0  03:04      0.46    0.32    0.53
  YS02001759YS02001757 CONDUIT    619.13     0  02:43      0.79    0.44    1.00
  YS02001762YS02001759 CONDUIT    313.29     0  02:42      0.40    0.36    1.00
  YS02001765YS02001762 CONDUIT    312.57     0  02:43      0.40    0.29    1.00
  YS02001770YS02001767 CONDUIT    312.68     0  02:43      0.40    1.24    1.00
  YS02001774YS02001770 CONDUIT    669.27     0  03:18      0.85    0.43    1.00
  YS02001779YS02001774 CONDUIT    668.86     0  03:19      0.85    0.34    1.00
  YS02001649YS02001757 CONDUIT    871.58     0  02:40      1.11    0.53    1.00
  YS02001767YS02001765 CONDUIT    313.18     0  02:43      0.40    0.39    1.00
  YS02006561YS02001783 CONDUIT    983.52     0  03:01      2.14    0.51    1.00
  YS02001783YS02001784 CONDUIT    983.74     0  03:00      1.96    1.36    1.00
  YS02001784YS02001785 CONDUIT    984.61     0  03:00      1.96    2.29    1.00
  YS02001788YS02001790 CONDUIT    985.03     0  03:00      2.44    0.73    1.00
  YS02001790YS02001791 CONDUIT    984.87     0  03:00      2.88    1.07    1.00
  YS02001791YS02001793 CONDUIT    985.30     0  03:01      5.76    0.42    1.00
  YS02001910YS02001907 CONDUIT    579.67     0  03:01      0.74    0.33    1.00
  YS02001786YS02001788 CONDUIT    985.00     0  02:59      2.31    1.90    1.00
  YS02001915YS02001910 CONDUIT    580.23     0  03:01      0.74    0.29    1.00
  YS02001918YS02001915 CONDUIT    254.90     0  03:46      0.44    0.14    1.00
  YS02001923YS02001920 CONDUIT    237.46     0  02:47      0.75    0.11    1.00
  YS02001926YS02001923 CONDUIT    239.95     0  02:47      0.86    0.34    0.93
  YS02001929YS02001926 CONDUIT    210.46     0  02:47      0.92    0.10    0.82
  YS02001920YS02001918 CONDUIT    240.73     0  02:47      0.72    0.23    1.00
  YS02001629YS02163301 CONDUIT    198.07     0  02:39      0.25    0.24    1.00
  YS02001619YS02001622 CONDUIT    381.55     0  03:01      0.59    0.56    1.00
  YS02001622YS02001625 CONDUIT    381.64     0  03:01      0.49    0.20    1.00
  YS02001625YS02001629 CONDUIT    197.24     0  02:39      0.25    0.09    1.00
  YS02163301YS02001633 CONDUIT    198.41     0  02:39      0.25    0.19    1.00
  YS02163601YS02164001 CONDUIT    415.23     0  02:39      0.53    0.37    1.00
  YS02164001YS02001641 CONDUIT    415.79     0  02:39      0.53    0.57    1.00
  YS02001641YS02001644 CONDUIT    416.07     0  02:39      0.53    1.35    1.00
  YS02001647YS02001649 CONDUIT    776.58     0  03:20      0.99    0.41    1.00
  YS02006553YS02006556 CONDUIT    708.11     0  03:46      0.90    0.61    1.00
  YS02006556YS02006558 CONDUIT    708.19     0  03:46      0.90    0.56    1.00
  YSB6556YSB1171       CONDUIT     42.84     0  03:02      0.13    0.04    0.82
  YS02001907YS02006553 CONDUIT    708.07     0  03:46      0.79    0.83    1.00
  YS02006558YS02006561 CONDUIT    983.73     0  03:00      3.48    2.17    1.00
  YS02001633YS02163601 CONDUIT    414.55     0  02:39      0.53    0.44    1.00
  YS02001644YS02001647 CONDUIT    776.59     0  03:20      0.99    0.46    1.00
  YS02001745YS02001748 CONDUIT    441.26     0  03:01      1.46    0.17    0.97
  YS02001748YS02001751 CONDUIT    441.28     0  03:01      1.03    0.22    1.00
  YS02001751YS02001754 CONDUIT    440.96     0  03:01      0.88    0.21    1.00
  YS02001754YS02001757 CONDUIT    441.16     0  03:01      0.56    0.18    1.00
  YS02001882YS02001884 CONDUIT     29.32     0  02:39      0.12    0.03    1.00
  YS02001884YS02001887 CONDUIT     57.67     0  02:33      0.08    0.08    1.00
  YS02001890YS02001895 CONDUIT    518.55     0  02:57      0.66    0.24    1.00
  YS02001895YS02001898 CONDUIT    518.42     0  02:57      0.66    0.90    1.00
  YS02001898YS02001901 CONDUIT    518.11     0  02:57      0.66    0.33    1.00
  YS02001901YS02001904 CONDUIT    518.26     0  02:57      0.66    0.80    1.00
  YS02001904YS02001907 CONDUIT    518.39     0  02:56      0.66    0.18    1.00
  YS02001887YS02001890 CONDUIT    680.19     0  03:01      0.87    1.16    1.00
  YS02001652YS02001649 CONDUIT    502.99     0  03:01      0.64    0.25    1.00
  YS02001655YS02001652 CONDUIT    502.39     0  03:01      0.94    0.24    1.00
  YS02001658YS02001655 CONDUIT    501.80     0  03:01      1.18    0.21    1.00
  YS02001661YS02001658 CONDUIT    501.74     0  03:01      1.52    0.20    1.00
  YS02001664YS02001661 CONDUIT    647.90     0  02:45      1.43    0.20    0.77
  YSB1154YSB6556       CONDUIT     43.28     0  03:01      0.18    0.08    0.73
  YSB1174YSB1171       CONDUIT     36.64     0  03:01      0.11    0.06    0.85
  YSB1171HS02004479    CONDUIT     75.44     0  03:02      0.54    0.05    0.68
  HS02004881HS02006253 CONDUIT    140.49     0  03:01      2.33    0.03    0.54
  YS02001793JiankangQianchi CONDUIT    985.54     0  02:59     16.63    0.08    1.00
  YS02001757CaochengTiaoxuchi CONDUIT   1678.61     0  02:40      2.17    0.74    1.00
  WSF200WS02003060     CONDUIT    938.99     0  03:04      1.93    0.21    0.45
  1                    CONDUIT   1333.28     0  03:07      3.59    0.46    0.48
  CC-Pump-1            PUMP       200.00     0  03:40              1.00
  CC-Pump-2            PUMP       200.00     0  04:00              1.00
  JK-Pump-1            PUMP       300.00     0  00:00              1.00
  JK-Pump-2            PUMP       683.00     0  02:50              1.00
  XR-Pump-1            PUMP        95.00     0  00:00              1.00
  XR-Pump-2            PUMP        95.00     0  00:00              1.00
  XR-Pump-3            PUMP        95.00     0  00:00              1.00
  XR-Pump-4            PUMP        95.00     0  00:00              1.00
  
  
  ***************************
  Flow Classification Summary
  ***************************
  
  -------------------------------------------------------------------------------------
                      Adjusted    ---------- Fraction of Time in Flow Class ---------- 
                       /Actual         Up    Down  Sub   Sup   Up    Down  Norm  Inlet 
  Conduit               Length    Dry  Dry   Dry   Crit  Crit  Crit  Crit  Ltd   Ctrl  
  -------------------------------------------------------------------------------------
  WS02003066WSF200        1.00   0.01  0.03  0.00  0.00  0.96  0.00  0.00  0.64  0.00
  WS02006287WS02006284    1.00   0.05  0.02  0.00  0.47  0.47  0.00  0.00  0.65  0.00
  WS02006284WS02006280    1.00   0.06  0.00  0.00  0.00  0.00  0.00  0.94  0.00  0.00
  WS02006280WS02006229    1.00   0.06  0.00  0.00  0.01  0.03  0.00  0.90  0.00  0.00
  WS02006229WS02006228    1.00   0.00  0.00  0.00  0.99  0.00  0.00  0.01  0.00  0.00
  WS02006256WS02006235    1.00   0.00  0.00  0.00  1.00  0.00  0.00  0.00  0.00  0.00
  WS02006253WS02006251    1.00   0.03  0.02  0.00  0.94  0.00  0.01  0.00  0.00  0.00
  WS02006252WS02006251    1.00   0.26  0.12  0.00  0.12  0.00  0.50  0.00  0.00  0.00
  WS02006251WS02006249    1.00   0.00  0.00  0.00  1.00  0.00  0.00  0.00  0.57  0.00
  WS02006249WS02006248    1.00   0.00  0.01  0.00  0.76  0.00  0.23  0.00  0.00  0.00
  WS02006248WS02006247    1.00   0.01  0.00  0.00  0.99  0.00  0.00  0.00  0.33  0.00
  WS02006247WS02006245    1.00   0.01  0.00  0.00  0.98  0.00  0.00  0.01  0.00  0.00
  WS02006245WS02006243    1.00   0.01  0.00  0.00  0.92  0.00  0.00  0.08  0.00  0.00
  WS02006243WS02006242    1.00   0.00  0.00  0.00  1.00  0.00  0.00  0.00  0.39  0.00
  WS02006242WS02006240    1.00   0.00  0.00  0.00  1.00  0.00  0.00  0.00  0.00  0.00
  WS02006240WS02006239    1.00   0.00  0.00  0.00  0.88  0.00  0.00  0.12  0.02  0.00
  WS02006239WS02006238    1.00   0.00  0.00  0.00  1.00  0.00  0.00  0.00  0.21  0.00
  WS02006238WS02006235    1.00   0.00  0.00  0.00  1.00  0.00  0.00  0.00  0.00  0.00
  WS02006235WS02006234    1.00   0.00  0.00  0.00  0.91  0.00  0.09  0.00  0.00  0.00
  WS02006234WS02006232    1.00   0.00  0.00  0.00  1.00  0.00  0.00  0.00  0.12  0.00
  WS02006232WS02006231    1.00   0.00  0.00  0.00  0.99  0.00  0.00  0.00  0.00  0.00
  WS02006231WS02006230    1.00   0.00  0.00  0.00  0.63  0.00  0.37  0.00  0.00  0.00
  WS02006230WS02006229    1.00   0.00  0.00  0.00  0.99  0.00  0.00  0.01  0.00  0.00
  WS02006228WS02006109    1.00   0.00  0.00  0.00  1.00  0.00  0.00  0.00  0.00  0.00
  WS02006116WS02004401    1.00   0.01  0.00  0.00  0.99  0.00  0.00  0.00  0.00  0.00
  WS02006115WS02006116    1.00   0.01  0.00  0.00  0.98  0.00  0.00  0.00  0.00  0.00
  WS02006113WS02006111    1.00   0.01  0.00  0.00  0.05  0.94  0.00  0.00  0.21  0.00
  WS02006112WS02006115    1.00   0.01  0.00  0.00  0.98  0.00  0.00  0.00  0.00  0.00
  WS02006111WS02006112    1.00   0.01  0.00  0.00  0.99  0.00  0.00  0.00  0.92  0.00
  WS02006110WS02006113    1.00   0.01  0.00  0.00  0.99  0.00  0.00  0.00  0.00  0.00
  WS02006109WS02006110    1.00   0.00  0.01  0.00  0.99  0.00  0.00  0.00  0.00  0.00
  WS02004411WS02004412    1.00   0.03  0.00  0.00  0.97  0.00  0.00  0.00  0.00  0.00
  WS02004401WS02004402    1.00   0.01  0.00  0.00  0.99  0.00  0.00  0.00  0.00  0.00
  WS02004413WS02003067    1.00   0.03  0.01  0.00  0.00  0.00  0.96  0.00  0.00  0.00
  WS02004412WS02004413    1.00   0.03  0.00  0.00  0.97  0.00  0.00  0.00  0.01  0.00
  WS02004410WS02004411    1.00   0.02  0.00  0.00  0.98  0.00  0.00  0.00  0.00  0.00
  WS02004409WS02004410    1.00   0.02  0.00  0.00  0.98  0.00  0.00  0.00  0.02  0.00
  WS02004407WS02004409    1.00   0.02  0.00  0.00  0.97  0.00  0.00  0.00  0.95  0.00
  WS02004406WS02004407    1.00   0.00  0.02  0.00  0.98  0.00  0.00  0.00  0.00  0.00
  WS02004405WS02004406    1.00   0.00  0.00  0.00  1.00  0.00  0.00  0.00  0.00  0.00
  WS02004404WS02004405    1.00   0.00  0.00  0.00  1.00  0.00  0.00  0.00  0.00  0.00
  WS02004403WS02004404    1.00   0.00  0.02  0.00  0.98  0.00  0.00  0.00  0.00  0.00
  WS02004402WS02004403    1.00   0.01  0.00  0.00  0.99  0.00  0.00  0.00  0.00  0.00
  WS02004139WS02001211    1.00   0.00  0.00  0.00  1.00  0.00  0.00  0.00  0.00  0.00
  WS02004138WS02004139    1.00   0.00  0.00  0.00  1.00  0.00  0.00  0.00  1.00  0.00
  WS02003067WS02003066    1.00   0.04  0.00  0.00  0.96  0.00  0.00  0.00  0.00  0.00
  WS02001213WS02003059    1.00   0.00  0.00  0.00  1.00  0.00  0.00  0.00  0.00  0.00
  WS02001212WS02001213    1.00   0.00  0.00  0.00  0.88  0.00  0.12  0.00  0.00  0.00
  WS02001211WS02001212    1.00   0.00  0.00  0.00  1.00  0.00  0.00  0.00  0.00  0.00
  WS02003072WS02003073    1.00   0.00  0.00  0.00  0.00  0.00  0.00  1.00  0.00  0.00
  WS02003069WS02003072    1.00   0.00  0.00  0.00  1.00  0.00  0.00  0.00  0.11  0.00
  WS02003060WS02003069    1.00   0.00  0.00  0.00  0.98  0.02  0.00  0.00  0.09  0.00
  WS02003059WS02003060    1.00   0.00  0.00  0.00  1.00  0.00  0.00  0.00  0.01  0.00
  HS02004901HS02004770    1.00   0.06  0.00  0.00  0.94  0.00  0.00  0.00  0.00  0.00
  HS02004876HS02004881    1.00   0.01  0.00  0.00  0.87  0.11  0.00  0.00  0.00  0.00
  HS02004870HS02004876    1.00   0.00  0.00  0.00  0.99  0.01  0.00  0.00  0.95  0.00
  HS02004842HS02004848    1.00   0.00  0.06  0.00  0.94  0.00  0.00  0.00  0.54  0.00
  HS02004837HS02004842    1.00   0.00  0.00  0.00  1.00  0.00  0.00  0.00  0.11  0.00
  HS02004830HS02004837    1.00   0.00  0.00  0.00  1.00  0.00  0.00  0.00  0.99  0.00
  HS02004824HS02004830    1.00   0.00  0.00  0.00  1.00  0.00  0.00  0.00  0.01  0.00
  HS02004817HS02004824    1.00   0.00  0.00  0.00  1.00  0.00  0.00  0.00  0.97  0.00
  HS02004770HS02004777    1.00   0.00  0.06  0.00  0.94  0.00  0.00  0.00  0.03  0.00
  HS02004799HS02004480    1.00   0.00  0.02  0.00  0.93  0.00  0.05  0.00  0.00  0.00
  HS02004792HS02004799    1.00   0.00  0.00  0.00  0.99  0.01  0.00  0.00  0.98  0.00
  HS02004788HS02004792    1.00   0.00  0.00  0.00  0.99  0.01  0.00  0.00  0.98  0.00
  HS02004785HS02004788    1.00   0.00  0.00  0.00  1.00  0.00  0.00  0.00  0.00  0.00
  HS02004777HS02004785    1.00   0.00  0.00  0.00  1.00  0.00  0.00  0.00  0.12  0.00
  HS02004480HS02004478    1.00   0.06  0.00  0.00  0.58  0.00  0.00  0.37  0.00  0.00
  HS02004479HS02004480    1.00   0.02  0.00  0.00  0.98  0.00  0.00  0.00  0.12  0.00
  HS02004862HS02004870    1.00   0.00  0.00  0.00  1.00  0.00  0.00  0.00  0.04  0.00
  HS02004848HS02004852    1.00   0.06  0.00  0.00  0.94  0.00  0.00  0.00  0.64  0.00
  HS02004856HS02004862    1.00   0.00  0.07  0.00  0.93  0.00  0.00  0.00  0.83  0.00
  HS02004852HS02004856    1.00   0.06  0.00  0.00  0.94  0.00  0.00  0.00  0.81  0.00
  HS02004802HS02004478    1.00   0.06  0.00  0.00  0.94  0.00  0.00  0.00  0.02  0.00
  HS02004478WS02006287    1.00   0.07  0.00  0.00  0.67  0.26  0.00  0.00  0.65  0.00
  HS02004817HS02004807    1.00   0.00  0.06  0.00  0.94  0.00  0.00  0.00  0.01  0.00
  HS02004807HS02004802    1.00   0.06  0.00  0.00  0.94  0.00  0.00  0.01  0.00  0.00
  YS02001759YS02001757    1.00   0.00  0.00  0.00  1.00  0.00  0.00  0.00  0.16  0.00
  YS02001762YS02001759    1.00   0.00  0.00  0.00  1.00  0.00  0.00  0.00  0.03  0.00
  YS02001765YS02001762    1.00   0.00  0.00  0.00  1.00  0.00  0.00  0.00  0.14  0.00
  YS02001770YS02001767    1.00   0.00  0.00  0.00  1.00  0.00  0.00  0.00  0.00  0.00
  YS02001774YS02001770    1.00   0.00  0.06  0.00  0.94  0.00  0.00  0.00  0.03  0.00
  YS02001779YS02001774    1.00   0.00  0.00  0.00  1.00  0.00  0.00  0.00  0.19  0.00
  YS02001649YS02001757    1.00   0.00  0.00  0.00  1.00  0.00  0.00  0.00  0.16  0.00
  YS02001767YS02001765    1.00   0.00  0.00  0.00  1.00  0.00  0.00  0.00  0.00  0.00
  YS02006561YS02001783    1.00   0.08  0.00  0.00  0.42  0.50  0.00  0.00  0.46  0.00
  YS02001783YS02001784    1.00   0.00  0.08  0.00  0.92  0.00  0.00  0.00  0.00  0.00
  YS02001784YS02001785    1.00   0.00  0.00  0.00  1.00  0.00  0.00  0.00  0.18  0.00
  YS02001788YS02001790    1.00   0.00  0.00  0.00  0.47  0.53  0.00  0.00  0.34  0.00
  YS02001790YS02001791    1.00   0.00  0.00  0.00  0.40  0.60  0.00  0.00  0.43  0.00
  YS02001791YS02001793    1.00   0.00  0.00  0.00  0.44  0.56  0.00  0.00  0.02  0.00
  YS02001910YS02001907    1.00   0.00  0.00  0.00  0.98  0.00  0.00  0.02  0.12  0.00
  YS02001786YS02001788    1.00   0.00  0.00  0.00  0.47  0.53  0.00  0.00  0.00  0.00
  YS02001915YS02001910    1.00   0.00  0.00  0.00  0.98  0.02  0.00  0.00  0.16  0.00
  YS02001918YS02001915    1.00   0.00  0.00  0.00  0.99  0.01  0.00  0.00  0.54  0.00
  YS02001923YS02001920    1.00   0.00  0.00  0.00  1.00  0.00  0.00  0.00  0.82  0.00
  YS02001926YS02001923    1.00   0.00  0.04  0.00  0.21  0.00  0.75  0.00  0.00  0.00
  YS02001929YS02001926    1.00   0.00  0.06  0.00  0.94  0.00  0.00  0.00  0.74  0.00
  YS02001920YS02001918    1.00   0.00  0.00  0.00  1.00  0.00  0.00  0.00  0.00  0.00
  YS02001629YS02163301    1.00   0.06  0.00  0.00  0.93  0.00  0.00  0.00  0.00  0.00
  YS02001619YS02001622    1.00   0.06  0.00  0.00  0.94  0.00  0.00  0.00  0.00  0.00
  YS02001622YS02001625    1.00   0.06  0.00  0.00  0.94  0.00  0.00  0.00  0.05  0.00
  YS02001625YS02001629    1.00   0.06  0.02  0.00  0.89  0.00  0.03  0.00  0.00  0.00
  YS02163301YS02001633    1.00   0.00  0.06  0.00  0.94  0.00  0.00  0.00  0.00  0.00
  YS02163601YS02164001    1.00   0.00  0.04  0.00  0.96  0.00  0.00  0.00  0.00  0.00
  YS02164001YS02001641    1.00   0.01  0.03  0.00  0.96  0.00  0.00  0.00  0.06  0.00
  YS02001641YS02001644    1.00   0.00  0.00  0.00  1.00  0.00  0.00  0.00  0.00  0.00
  YS02001647YS02001649    1.00   0.00  0.07  0.00  0.93  0.00  0.00  0.00  0.01  0.00
  YS02006553YS02006556    1.00   0.01  0.00  0.00  0.99  0.00  0.00  0.00  0.03  0.00
  YS02006556YS02006558    1.00   0.00  0.00  0.00  1.00  0.00  0.00  0.00  0.00  0.00
  YSB6556YSB1171          1.00   0.02  0.03  0.00  0.95  0.00  0.00  0.00  0.00  0.00
  YS02001907YS02006553    1.00   0.00  0.01  0.00  0.99  0.00  0.00  0.00  0.00  0.00
  YS02006558YS02006561    1.00   0.08  0.00  0.00  0.22  0.70  0.00  0.00  0.48  0.00
  YS02001633YS02163601    1.00   0.00  0.00  0.00  1.00  0.00  0.00  0.00  0.15  0.00
  YS02001644YS02001647    1.00   0.00  0.07  0.00  0.93  0.00  0.00  0.00  0.00  0.00
  YS02001745YS02001748    1.00   0.00  0.00  0.00  0.86  0.01  0.00  0.13  0.04  0.00
  YS02001748YS02001751    1.00   0.00  0.00  0.00  0.95  0.05  0.00  0.00  0.15  0.00
  YS02001751YS02001754    1.00   0.00  0.00  0.00  0.91  0.00  0.00  0.09  0.02  0.00
  YS02001754YS02001757    1.00   0.00  0.00  0.00  1.00  0.00  0.00  0.00  0.18  0.00
  YS02001882YS02001884    1.00   0.06  0.00  0.00  0.93  0.00  0.00  0.00  0.00  0.00
  YS02001884YS02001887    1.00   0.03  0.02  0.00  0.95  0.00  0.00  0.00  0.00  0.00
  YS02001890YS02001895    1.00   0.00  0.07  0.00  0.93  0.00  0.00  0.00  0.00  0.00
  YS02001895YS02001898    1.00   0.07  0.00  0.00  0.92  0.00  0.02  0.00  0.00  0.00
  YS02001898YS02001901    1.00   0.07  0.00  0.00  0.93  0.00  0.00  0.00  0.01  0.00
  YS02001901YS02001904    1.00   0.07  0.00  0.00  0.93  0.00  0.00  0.00  0.00  0.00
  YS02001904YS02001907    1.00   0.00  0.07  0.00  0.93  0.00  0.00  0.00  0.00  0.00
  YS02001887YS02001890    1.00   0.00  0.00  0.00  0.98  0.00  0.02  0.00  0.00  0.00
  YS02001652YS02001649    1.00   0.00  0.00  0.00  1.00  0.00  0.00  0.00  0.17  0.00
  YS02001655YS02001652    1.00   0.00  0.00  0.00  0.91  0.00  0.00  0.09  0.02  0.00
  YS02001658YS02001655    1.00   0.00  0.06  0.00  0.89  0.04  0.00  0.00  0.10  0.00
  YS02001661YS02001658    1.00   0.06  0.00  0.00  0.86  0.08  0.00  0.00  0.11  0.00
  YS02001664YS02001661    1.00   0.06  0.00  0.00  0.88  0.06  0.00  0.00  0.20  0.00
  YSB1154YSB6556          1.00   0.05  0.00  0.00  0.95  0.00  0.00  0.00  0.02  0.00
  YSB1174YSB1171          1.00   0.03  0.02  0.00  0.96  0.00  0.00  0.00  0.00  0.00
  YSB1171HS02004479       1.00   0.02  0.00  0.00  0.97  0.00  0.00  0.00  0.10  0.00
  HS02004881HS02006253    1.00   0.03  0.00  0.00  0.38  0.02  0.00  0.57  0.21  0.00
  YS02001793JiankangQianchi    1.00   0.00  0.00  0.00  0.70  0.30  0.00  0.00  0.38  0.00
  YS02001757CaochengTiaoxuchi    1.00   0.00  0.11  0.00  0.89  0.00  0.00  0.00  0.00  0.00
  WSF200WS02003060        1.00   0.00  0.01  0.00  0.98  0.01  0.00  0.00  0.57  0.00
  1                       1.00   0.00  0.00  0.00  0.00  1.00  0.00  0.00  0.48  0.00
  
  
  *************************
  Conduit Surcharge Summary
  *************************
  
  ----------------------------------------------------------------------------
                                                           Hours        Hours 
                         --------- Hours Full --------   Above Full   Capacity
  Conduit                Both Ends  Upstream  Dnstream   Normal Flow   Limited
  ----------------------------------------------------------------------------
  WS02006229WS02006228        2.60      2.62      2.60      2.99         2.60
  WS02006256WS02006235        4.84      4.84      6.25      4.41         0.01
  WS02006253WS02006251        0.89      0.89      0.94      0.01         0.01
  WS02006252WS02006251        0.62      0.62      0.86      0.64         0.01
  WS02006251WS02006249        0.90      0.90      0.97      0.45         0.41
  WS02006249WS02006248        0.93      0.93      0.97      0.99         0.01
  WS02006248WS02006247        0.98      0.98      1.04      0.01         0.01
  WS02006247WS02006245        1.04      1.05      1.04      1.34         0.89
  WS02006245WS02006243        1.06      1.06      1.14      0.01         0.06
  WS02006243WS02006242        1.18      1.18      1.41      0.01         0.01
  WS02006242WS02006240        1.38      1.38      1.47      0.59         0.01
  WS02006240WS02006239        1.41      1.41      1.47      0.28         0.20
  WS02006239WS02006238        1.55      1.55      1.63      0.35         0.26
  WS02006238WS02006235        1.63      1.63      1.70      0.01         0.01
  WS02006235WS02006234        1.53      1.53      1.61      4.69         0.01
  WS02006234WS02006232        1.57      1.57      2.06      0.44         0.43
  WS02006232WS02006231        1.24      1.24      2.06      0.53         0.01
  WS02006231WS02006230        1.01      1.01      1.27      4.91         0.01
  WS02006230WS02006229        2.81      2.91      2.81      5.17         2.81
  WS02006228WS02006109        2.61      2.73      2.61      4.27         2.61
  WS02006116WS02004401        0.36      0.36      0.36      0.33         0.33
  WS02006115WS02006116        0.30      0.30      0.31      0.28         0.28
[...]
  YS02001770YS02001767        5.69      5.69      5.69      0.47         0.64
  YS02001774YS02001770        5.68      5.68      5.74      0.01         0.01
  YS02001779YS02001774        5.56      5.56      5.74      0.01         0.01
  YS02001649YS02001757        5.75      5.75      5.86      0.01         0.01
  YS02001767YS02001765        5.69      5.69      5.72      0.01         0.01
  YS02006561YS02001783        0.99      0.99      1.33      0.01         0.01
  YS02001783YS02001784        1.31      1.33      1.31      1.49         1.25
  YS02001784YS02001785        1.26      1.31      1.26      2.49         1.26
  YS02001788YS02001790        1.20      1.20      2.31      0.01         0.01
  YS02001790YS02001791        2.30      2.31      2.39      1.10         1.08
  YS02001791YS02001793        2.39      2.39      2.73      0.01         0.01
  YS02001910YS02001907        1.27      1.27      1.90      0.01         0.01
  YS02001786YS02001788        1.20      1.26      1.20      2.09         1.20
  YS02001915YS02001910        1.11      1.11      1.27      0.01         0.01
  YS02001918YS02001915        0.94      0.94      1.11      0.01         0.01
  YS02001923YS02001920        0.78      0.78      0.96      0.01         0.01
  YS02001920YS02001918        0.94      0.94      0.96      0.01         0.01
  YS02001629YS02163301        5.67      5.67      5.68      0.01         0.01
  YS02001619YS02001622        5.40      5.40      5.41      0.01         0.01
  YS02001622YS02001625        5.41      5.41      5.64      0.01         0.01
  YS02001625YS02001629        5.40      5.40      5.64      0.01         0.01
  YS02163301YS02001633        5.68      5.68      5.72      0.01         0.01
  YS02163601YS02164001        5.72      5.72      5.75      0.01         0.01
  YS02164001YS02001641        5.72      5.72      5.73      0.01         0.01
  YS02001641YS02001644        5.73      5.73      5.73      1.72         1.83
  YS02001647YS02001649        5.62      5.62      5.75      0.01         0.01
  YS02006553YS02006556        1.48      1.48      1.97      0.01         0.01
  YS02006556YS02006558        1.67      1.67      2.05      0.01         0.01
  YSB6556YSB1171              0.01      0.01      0.07      0.01         0.01
  YS02001907YS02006553        2.53      2.53      2.80      0.01         0.01
  YS02006558YS02006561        1.11      1.45      1.11      2.36         1.11
  YS02001633YS02163601        5.71      5.71      5.75      0.01         0.01
  YS02001644YS02001647        5.62      5.62      5.73      0.01         0.01
  YS02001745YS02001748        0.01      0.01      5.22      0.01         0.01
  YS02001748YS02001751        5.26      5.26      5.38      0.01         0.01
  YS02001751YS02001754        5.38      5.38      5.58      0.01         0.01
  YS02001754YS02001757        5.61      5.61      5.86      0.01         0.01
  YS02001882YS02001884        1.12      1.12      1.14      0.01         0.01
  YS02001884YS02001887        1.19      1.19      1.21      0.01         0.01
  YS02001890YS02001895        1.10      1.10      1.29      0.01         0.01
  YS02001895YS02001898        1.09      1.09      1.10      0.01         0.01
  YS02001898YS02001901        1.11      1.11      1.18      0.01         0.01
  YS02001901YS02001904        1.16      1.16      1.18      0.01         0.01
  YS02001904YS02001907        1.16      1.16      1.99      0.01         0.01
  YS02001887YS02001890        1.23      1.23      1.26      0.16         0.01
  YS02001652YS02001649        5.63      5.63      5.75      0.01         0.01
  YS02001655YS02001652        5.41      5.41      5.61      0.01         0.01
  YS02001658YS02001655        5.24      5.24      5.41      0.01         0.01
  YS02001661YS02001658        0.10      0.10      5.24      0.01         0.01
  YS02001664YS02001661        0.01      0.01      1.15      0.01         0.01
  HS02004881HS02006253        0.01      0.01      0.62      0.01         0.01
  YS02001793JiankangQianchi        2.65      2.65      4.26      0.01         0.01
  YS02001757CaochengTiaoxuchi        5.11      5.11      5.86      0.01         0.01
  
  
  ***************
  Pumping Summary
  ***************
  
  ---------------------------------------------------------------------------------------------------------
                                                  Min       Avg       Max     Total     Power    % Time Off
                        Percent   Number of      Flow      Flow      Flow    Volume     Usage    Pump Curve
  Pump                 Utilized   Start-Ups       LPS       LPS       LPS  10^6 ltr     Kw-hr    Low   High
  ---------------------------------------------------------------------------------------------------------
  CC-Pump-1               23.40           3      0.00    152.58    200.00     0.960      0.95    0.0    0.0
  CC-Pump-2               14.89           2      0.00     97.47    200.00     0.480      0.62    0.0    0.0
  JK-Pump-1               61.69           5      0.00    249.06    300.00     3.957     59.92    0.0    0.0
  JK-Pump-2               48.93           4      0.00    480.19    683.00     5.951     79.36    0.0   96.6
  XR-Pump-1               97.87           2      0.00     93.48     95.00     2.565     24.91    0.0    0.0
  XR-Pump-2               95.74           3      0.00     92.72     95.00     2.451     22.46    0.0    0.0
  XR-Pump-3               95.74           3      0.00     92.72     95.00     2.451     22.46    0.0    0.0
  XR-Pump-4               95.74           3      0.00     92.72     95.00     2.451     22.46    0.0    0.0
  
  
  ***************************
  Link Pollutant Load Summary
  ***************************
  
  ------------------------------------------------------------------------------------------
                                 COD            SS            TN            TP         NH4-N
  Link                            kg            kg            kg            kg            kg
  ------------------------------------------------------------------------------------------
  WS02003066WSF200           709.300      1332.319        19.186         1.719        10.187
  WS02006287WS02006284       319.463       608.076        10.314         1.015         5.678
  WS02006284WS02006280       319.937       608.850        10.359         1.021         5.707
  WS02006280WS02006229       319.885       608.743        10.357         1.020         5.705
  WS02006229WS02006228       691.071      1299.420        18.354         1.625         9.700
  WS02006256WS02006235       217.825       401.661         4.890         0.385         2.485
  WS02006253WS02006251        56.390       111.839         1.197         0.087         0.586
  WS02006252WS02006251       131.116       241.490         2.640         0.187         1.286
  WS02006251WS02006249       186.087       350.746         3.840         0.277         1.879
  WS02006249WS02006248       156.323       293.831         3.243         0.235         1.589
  WS02006248WS02006247       156.330       293.857         3.239         0.234         1.586
  WS02006247WS02006245       156.415       293.991         3.239         0.234         1.587
  WS02006245WS02006243       156.432       294.044         3.237         0.234         1.585
  WS02006243WS02006242       157.235       295.474         3.256         0.235         1.595
  WS02006242WS02006240       158.840       298.358         3.288         0.237         1.610
  WS02006240WS02006239       161.996       304.058         3.360         0.242         1.646
  WS02006239WS02006238       165.643       310.305         3.461         0.251         1.700
  WS02006238WS02006235       167.856       314.048         3.519         0.256         1.731
  WS02006235WS02006234       371.150       690.524         8.013         0.607         4.006
  WS02006234WS02006232       371.484       691.047         8.028         0.609         4.015
  WS02006232WS02006231       371.279       690.733         8.019         0.608         4.010
  WS02006231WS02006230       371.339       690.911         8.019         0.608         4.009
  WS02006230WS02006229       371.445       691.084         8.017         0.608         4.008
  WS02006228WS02006109       691.171      1299.591        18.348         1.625         9.697
  WS02006116WS02004401       710.965      1335.201        19.284         1.731        10.246
  WS02006115WS02006116       711.048      1335.334        19.295         1.732        10.253
  WS02006113WS02006111       699.139      1312.288        19.109         1.720        10.172
  WS02006112WS02006115       711.496      1336.068        19.329         1.736        10.274
  WS02006111WS02006112       699.234      1312.504        19.105         1.719        10.169
  WS02006110WS02006113       699.423      1312.784        19.129         1.722        10.184
  WS02006109WS02006110       699.851      1313.494        19.166         1.727        10.207
  WS02004411WS02004412       710.688      1334.608        19.280         1.731        10.244
  WS02004401WS02004402       710.603      1334.603        19.256         1.727        10.229
  WS02004413WS02003067       709.392      1332.504        19.190         1.720        10.190
  WS02004412WS02004413       710.395      1334.148        19.257         1.728        10.230
  WS02004410WS02004411       710.856      1334.888        19.293         1.732        10.253
  WS02004409WS02004410       711.118      1335.319        19.313         1.734        10.264
  WS02004407WS02004409       711.098      1335.289        19.313         1.735        10.265
  WS02004406WS02004407       710.884      1334.961        19.299         1.733        10.256
  WS02004405WS02004406       711.488      1335.984        19.344         1.738        10.284
  WS02004404WS02004405       711.039      1335.244        19.311         1.734        10.264
  WS02004403WS02004404       710.111      1333.782        19.217         1.723        10.205
  WS02004402WS02004403       710.448      1334.341        19.243         1.726        10.221
  WS02004139WS02001211      1382.666      2295.710       112.251        13.702        69.193
  WS02004138WS02004139      1388.833      2306.014       112.727        13.760        69.484
  WS02003067WS02003066       709.412      1332.510        19.193         1.720        10.191
  WS02001213WS02003059      1416.244      2348.500       115.724        14.140        71.375
  WS02001212WS02001213      1424.944      2362.934       116.425        14.226        71.806
  WS02001211WS02001212      1427.115      2366.468       116.615        14.249        71.924
  WS02003072WS02003073      2227.586      3843.364       144.926        17.115        87.831
  WS02003069WS02003072      2231.914      3850.329       145.311        17.163        88.070
  WS02003060WS02003069      2234.195      3854.173       145.470        17.182        88.167
  WS02003059WS02003060      1413.405      2343.684       115.525        14.117        71.254
  HS02004901HS02004770        13.094        25.474         0.248         0.019         0.116
  HS02004876HS02004881        45.514        90.344         0.999         0.073         0.491
  HS02004870HS02004876        34.382        68.103         0.798         0.060         0.395
  HS02004842HS02004848         6.456        12.343         0.134         0.009         0.062
  HS02004837HS02004842        11.056        19.636         0.603         0.068         0.356
  HS02004830HS02004837        70.298       122.726         4.643         0.552         2.827
  HS02004824HS02004830        71.068       123.980         4.715         0.561         2.871
  HS02004817HS02004824        97.162       176.404         5.254         0.596         3.135
  HS02004770HS02004777        49.662        97.712         1.021         0.069         0.472
  HS02004799HS02004480       162.318       310.823         4.263         0.379         2.209
  HS02004792HS02004799       147.269       280.112         4.028         0.367         2.105
  HS02004788HS02004792        82.814       157.679         2.665         0.255         1.440
  HS02004785HS02004788        51.119       100.044         1.172         0.089         0.567
  HS02004777HS02004785        50.444        98.940         1.112         0.081         0.530
  HS02004480HS02004478       204.810       395.160         4.971         0.429         2.543
  HS02004479HS02004480        46.127        90.112         1.037         0.091         0.538
  HS02004862HS02004870        25.799        50.338         0.628         0.050         0.314
  HS02004848HS02004852        10.252        19.885         0.210         0.014         0.097
  HS02004856HS02004862        17.524        34.748         0.350         0.023         0.164
  HS02004852HS02004856        10.255        19.889         0.210         0.014         0.097
  HS02004802HS02004478       115.336       214.040         5.397         0.592         3.169
  HS02004478WS02006287       319.673       608.441        10.331         1.017         5.689
  HS02004817HS02004807        95.856       174.307         5.130         0.581         3.057
  HS02004807HS02004802       115.594       214.444         5.430         0.596         3.189
  YS02001759YS02001757       345.215       634.603         6.891         0.480         3.368
  YS02001762YS02001759       180.359       333.360         3.779         0.267         1.868
  YS02001765YS02001762       180.801       334.720         3.808         0.270         1.885
  YS02001770YS02001767       181.244       337.286         3.627         0.242         1.762
  YS02001774YS02001770       270.161       525.235         5.186         0.344         2.505
  YS02001779YS02001774       269.582       524.111         5.270         0.358         2.563
  YS02001649YS02001757       385.245       694.952         7.878         0.540         3.810
  YS02001767YS02001765       181.701       336.889         3.839         0.272         1.902
  YS02006561YS02001783      1018.327      1887.277        21.373         1.596        10.639
  YS02001783YS02001784      1018.255      1887.183        21.369         1.596        10.637
  YS02001784YS02001785      1025.621      1898.997        22.083         1.685        11.083
  YS02001788YS02001790      1026.210      1899.961        22.154         1.695        11.129
  YS02001790YS02001791      1027.311      1901.757        22.256         1.707        11.192
  YS02001791YS02001793      1027.183      1901.548        22.250         1.707        11.189
  YS02001910YS02001907       391.436       721.936         9.425         0.723         4.833
  YS02001786YS02001788      1025.811      1899.314        22.110         1.689        11.101
  YS02001915YS02001910       391.477       721.996         9.376         0.716         4.801
  YS02001918YS02001915       189.760       335.099         5.237         0.476         2.821
  YS02001923YS02001920       167.188       297.810         3.253         0.232         1.588
  YS02001926YS02001923       164.860       293.864         3.121         0.217         1.509
  YS02001929YS02001926       164.184       292.731         3.065         0.210         1.474
  YS02001920YS02001918       187.515       330.524         5.169         0.471         2.785
  YS02001629YS02163301        96.072       169.878         2.028         0.131         0.946
  YS02001619YS02001622       175.876       321.140         3.602         0.236         1.684
  YS02001622YS02001625       174.678       319.233         3.573         0.234         1.671
  YS02001625YS02001629        97.161       171.658         2.052         0.132         0.957
  YS02163301YS02001633        96.434       170.751         2.030         0.132         0.948
  YS02163601YS02164001       405.643       733.010         7.897         0.562         3.783
  YS02164001YS02001641       405.088       732.067         7.876         0.560         3.771
  YS02001641YS02001644       405.163       732.117         7.872         0.560         3.769
  YS02001647YS02001649       492.890       900.616         9.981         0.691         4.794
  YS02006553YS02006556       684.382      1257.652        14.747         1.131         7.426
  YS02006556YS02006558       684.333      1257.552        14.718         1.127         7.407
  YSB6556YSB1171              26.521        51.966         0.537         0.045         0.271
  YS02001907YS02006553       684.508      1257.907        14.755         1.132         7.432
  YS02006558YS02006561      1018.321      1887.255        21.372         1.596        10.639
  YS02001633YS02163601       406.384       734.167         7.878         0.558         3.767
  YS02001644YS02001647       497.537       909.558        10.053         0.696         4.827
  YS02001745YS02001748       245.517       460.241         5.067         0.327         2.464
  YS02001748YS02001751       245.590       460.040         5.224         0.349         2.568
  YS02001751YS02001754       244.630       458.463         5.207         0.349         2.561
  YS02001754YS02001757       245.376       459.573         5.372         0.371         2.668
  YS02001882YS02001884         3.084         5.336         0.062         0.005         0.031
  YS02001884YS02001887         6.825        12.080         0.135         0.010         0.067
  YS02001890YS02001895       451.071       846.654         8.303         0.624         4.050
  YS02001895YS02001898       450.904       846.432         8.297         0.624         4.047
  YS02001898YS02001901       450.717       846.115         8.293         0.624         4.045
  YS02001901YS02001904       450.562       845.895         8.299         0.625         4.049
  YS02001904YS02001907       450.811       846.287         8.353         0.632         4.084
  YS02001887YS02001890       468.293       880.811         8.646         0.653         4.223
  YS02001652YS02001649       206.070       382.461         4.153         0.299         1.947
  YS02001655YS02001652       206.954       383.865         4.176         0.300         1.958
  YS02001658YS02001655       206.844       383.681         4.099         0.289         1.906
  YS02001661YS02001658       207.759       385.149         4.120         0.291         1.915
  YS02001664YS02001661       218.904       403.663         4.369         0.308         2.029
  YSB1154YSB6556              26.085        51.270         0.486         0.038         0.239
  YSB1174YSB1171              18.021        35.562         0.361         0.029         0.181
  YSB1171HS02004479           46.091        90.056         1.040         0.092         0.540
  HS02004881HS02006253        51.499       102.568         1.107         0.080         0.542
  YS02001793JiankangQianchi      1027.499      1902.060        22.274         1.710        11.203
  YS02001757CaochengTiaoxuchi       513.146       945.729        10.319         0.726         5.023
  WSF200WS02003060           709.376      1332.419        19.195         1.720        10.192
  1                         2232.932      3851.183       145.622        17.205        88.275
  CC-Pump-1                   87.452       161.156         1.759         0.125         0.857
  CC-Pump-2                   43.607        80.235         0.879         0.063         0.428
  JK-Pump-1                  281.669       523.556         6.162         0.478         3.111
  JK-Pump-2                  523.603       988.655        10.762         0.804         5.343
  XR-Pump-1                  367.683       609.311        30.135         3.684        18.591
  XR-Pump-2                  341.575       567.538        27.628         3.371        17.025
  XR-Pump-3                  341.575       567.538        27.628         3.371        17.025
  XR-Pump-4                  341.575       567.538        27.628         3.371        17.025
  

  Analysis begun on:  Thu Jul 15 22:52:38 2021
  Analysis ended on:  Thu Jul 15 22:52:40 2021
  Total elapsed time: 00:00:02