
  EPA STORM WATER MANAGEMENT MODEL - VERSION 5.1 (Build 5.3.0.dev0)
  --------------------------------------------------------------

  WARNING 04: minimum elevation drop used for Conduit WS02004404WS02004405
  WARNING 03: negative offset ignored for Link YS02001904YS02001907
  
  *********************************************************
  NOTE: The summary statistics displayed in this report are
  based on results found at every computational time step,  
  not just on results from each reporting time step.
  *********************************************************
  
  ****************
  Analysis Options
  ****************
  Flow Units ............... LPS
  Process Models:
    Rainfall/Runoff ........ YES
    RDII ................... NO
    Snowmelt ............... NO
    Groundwater ............ NO
    Flow Routing ........... YES
    Ponding Allowed ........ NO
    Water Quality .......... YES
  Infiltration Method ...... HORTON
  Flow Routing Method ...... DYNWAVE
  Surcharge Method ......... EXTRAN
  Starting Date ............ 08/28/2015 08:00:00
  Ending Date .............. 08/28/2015 15:50:00
  Antecedent Dry Days ...... 8.0
  Report Time Step ......... 00:01:00
  Wet Time Step ............ 00:01:00
  Dry Time Step ............ 00:01:00
  Routing Time Step ........ 5.00 sec
  Variable Time Step ....... YES
  Maximum Trials ........... 8
  Number of Threads ........ 4
  Head Tolerance ........... 0.001500 m
  
  
  **************************        Volume         Depth
  Runoff Quantity Continuity     hectare-m            mm
  **************************     ---------       -------
  Total Precipitation ......         6.144        13.452
  Evaporation Loss .........         0.000         0.000
  Infiltration Loss ........         1.064         2.328
  Surface Runoff ...........         4.147         9.079
  Final Storage ............         0.935         2.047
  Continuity Error (%) .....        -0.020
  
  
  **************************           COD            SS            TN            TP         NH4-N
  Runoff Quality Continuity             kg            kg            kg            kg            kg
  **************************    ----------    ----------    ----------    ----------    ----------
  Initial Buildup ..........     41378.656     70582.865      1804.177       168.684      1032.807
  Surface Buildup ..........        21.799        40.924         2.400         0.218         1.395
  Wet Deposition ...........         0.000         0.000         0.000         0.000         0.000
  Sweeping Removal .........         0.000         0.000         0.000         0.000         0.000
  Infiltration Loss ........        97.311       184.943         1.849         0.130         0.881
  BMP Removal ..............         0.000         0.000         0.000         0.000         0.000
  Surface Runoff ...........      3769.819      7064.251        72.781         4.964        34.599
  Remaining Buildup ........     37531.916     63371.884      1731.919       163.806       998.709
  Continuity Error (%) .....         0.003         0.004         0.002         0.001         0.001
  
  
  **************************        Volume        Volume
  Flow Routing Continuity        hectare-m      10^6 ltr
  **************************     ---------     ---------
  Dry Weather Inflow .......         0.616         6.165
  Wet Weather Inflow .......         4.145        41.453
  Groundwater Inflow .......         0.000         0.000
  RDII Inflow ..............         0.000         0.000
  External Inflow ..........         0.102         1.024
  External Outflow .........         1.768        17.677
  Flooding Loss ............         2.640        26.401
  Evaporation Loss .........         0.000         0.000
  Exfiltration Loss ........         0.000         0.000
  Initial Stored Volume ....         0.076         0.761
  Final Stored Volume ......         0.653         6.527
  Continuity Error (%) .....        -2.436
  
  
  **************************           COD            SS            TN            TP         NH4-N
  Quality Routing Continuity            kg            kg            kg            kg            kg
  **************************    ----------    ----------    ----------    ----------    ----------
  Dry Weather Inflow .......      1541.201      2465.922       147.955        18.494        92.472
  Wet Weather Inflow .......      3769.169      7063.187        72.766         4.964        34.593
  Groundwater Inflow .......         0.000         0.000         0.000         0.000         0.000
  RDII Inflow ..............         0.000         0.000         0.000         0.000         0.000
  External Inflow ..........       183.418       293.469        17.608         2.201        11.005
  External Outflow .........      2207.128      3806.022       144.686        17.113        87.753
  Flooding Loss ............      2579.515      4782.633        65.714         5.669        34.413
  Exfiltration Loss ........         0.000         0.000         0.000         0.000         0.000
  Mass Reacted .............         0.000         0.000         0.000         0.000         0.000
  Initial Stored Mass ......         0.000         0.000         0.000         0.000         0.000
  Final Stored Mass ........       590.926      1036.385        25.058         2.652        14.440
  Continuity Error (%) .....         2.115         2.011         1.205         0.875         1.060
  
  
  *************************
  Highest Continuity Errors
  *************************
  Node HS02004842 (13.41%)
  Node JK-storage (-11.37%)
  Node YS02001884 (9.98%)
  Node HS02004817 (2.53%)
  Node YSB1171 (2.46%)
  
  
  ***************************
  Time-Step Critical Elements
  ***************************
  Link WS02006252WS02006251 (37.07%)
  Link WS02006280WS02006229 (15.71%)
  Link YS02001793JiankangQianchi (11.61%)
  Link WS02006238WS02006235 (10.01%)
  Link YS02006556YS02006558 (9.83%)
  
  
  ********************************
  Highest Flow Instability Indexes
  ********************************
  Link WS02006113WS02006111 (50)
  Link YS02163601YS02164001 (30)
  Link YS02163301YS02001633 (30)
  Link YS02001629YS02163301 (30)
  Link YS02001619YS02001622 (29)
  
  
  *************************
  Routing Time Step Summary
  *************************
  Minimum Time Step           :     0.26 sec
  Average Time Step           :     1.73 sec
  Maximum Time Step           :     5.00 sec
  Percent in Steady State     :    -0.00
  Average Iterations per Step :     3.82
  Percent Not Converging      :    13.89
  
  
  ***************************
  Subcatchment Runoff Summary
  ***************************
  
  ------------------------------------------------------------------------------------------------------------------------------
                            Total      Total      Total      Total     Imperv       Perv      Total       Total     Peak  Runoff
                           Precip      Runon       Evap      Infil     Runoff     Runoff     Runoff      Runoff   Runoff   Coeff
  Subcatchment                 mm         mm         mm         mm         mm         mm         mm    10^6 ltr      LPS
  ------------------------------------------------------------------------------------------------------------------------------
  sub0                      13.45       0.00       0.00       0.63      12.47       0.31      12.77        0.01     3.75   0.950
  sub1                      13.45       0.00       0.00       1.12      11.88       0.36      12.24        0.08    25.66   0.910
  sub2                      13.45       0.00       0.00       4.44       8.39       0.53       8.92        0.08    25.29   0.663
  sub3                      13.45       0.00       0.00       4.56       8.35       0.42       8.77        0.20    55.75   0.652
  sub4                      13.45       0.00       0.00       1.22      11.71       0.26      11.97        0.25    65.52   0.890
  sub5                      13.45       0.00       0.00       0.68      12.41       0.26      12.67        0.14    44.76   0.942
  sub7                      13.45       0.00       0.00       0.86      12.18       0.35      12.53        0.04    14.26   0.931
  sub8                      13.45       0.00       0.00       0.87      12.17       0.34      12.50        0.08    26.26   0.930
  sub9                      13.45       0.00       0.00       0.88      12.17       0.33      12.50        0.06    19.64   0.929
  sub10                     13.45       0.00       0.00       0.78      12.29       0.29      12.58        0.14    44.00   0.935
  sub11                     13.45       0.00       0.00       0.77      12.30       0.31      12.61        0.15    48.45   0.938
  sub12                     13.45       0.00       0.00       1.25      11.66       0.50      12.16        0.11    38.10   0.904
  sub14                     13.45       0.00       0.00       0.88      12.16       0.33      12.49        0.12    38.67   0.929
  sub15                     13.45       0.00       0.00       3.37       9.35       0.66      10.01        0.17    57.01   0.744
  sub16                     13.45       0.00       0.00       3.56       8.97       0.88       9.85        0.10    37.63   0.732
  sub17                     13.45       0.00       0.00       3.47       9.10       0.84       9.94        0.09    30.67   0.739
  sub22                     13.45       0.00       0.00       4.98       7.63       0.81       8.43        0.53   184.54   0.627
  sub23                     13.45       0.00       0.00       4.17       8.43       0.81       9.24        0.44   154.22   0.687
  sub60                     13.45       0.00       0.00       1.53       9.85       0.09       9.93        3.01   438.14   0.738
  sub61                     13.45       0.00       0.00       2.16       9.95       0.12      10.07        3.11   536.45   0.749
  sub62                     13.45       0.00       0.00       0.98      10.84       0.10      10.94        3.36   552.35   0.813
  sub63                     13.45       0.00       0.00       3.77       8.69       0.14       8.83        2.67   492.63   0.656
  sub64                     13.45       0.00       0.00       1.93       9.45       0.09       9.54        2.90   416.72   0.709
  sub65                     13.45       0.00       0.00       1.67       9.61       0.08       9.70        2.98   423.09   0.721
  sub66                     13.45       0.00       0.00       3.81       8.10       0.09       8.18        2.51   380.66   0.608
  sub67                     13.45       0.00       0.00       0.95      11.38       0.13      11.51        3.55   679.52   0.856
  sub68                     13.45       0.00       0.00       1.75      10.45       0.13      10.59        3.26   586.26   0.787
  sub69                     13.45       0.00       0.00       1.83      10.79       0.19      10.98        2.57   544.72   0.816
  sub70                     13.45      11.20       0.00       7.51      14.65       0.88      15.52        3.55   494.81   0.630
  sub71                     13.45       0.00       0.00       0.99      10.58       0.09      10.67        2.52   389.24   0.793
  sub72                     13.45       0.00       0.00       0.89       8.56       0.05       8.61        1.75   189.18   0.640
  1                         13.45      15.11       0.00       1.37      16.56       4.63      21.19        4.98   484.42   0.742
  2                         13.45       0.00       0.00       3.02       3.21       1.96       5.17        2.07   340.45   0.384
  
  
  ****************************
  Subcatchment Washoff Summary
  ****************************
  
  ------------------------------------------------------------------------------------------
                                 COD            SS            TN            TP         NH4-N
  Subcatchment                    kg            kg            kg            kg            kg
  ------------------------------------------------------------------------------------------
  sub0                         2.670         5.197         0.046         0.004         0.022
  sub1                        11.241        22.423         0.210         0.015         0.101
  sub2                         6.894        13.384         0.145         0.010         0.067
  sub3                        16.924        32.573         0.350         0.024         0.161
  sub4                        25.772        51.904         0.510         0.031         0.245
  sub5                        25.778        50.682         0.460         0.035         0.223
  sub7                         5.751        11.638         0.108         0.007         0.052
  sub8                         8.581        17.755         0.171         0.010         0.082
  sub9                         7.353        15.005         0.142         0.009         0.068
  sub10                       21.202        42.223         0.389         0.028         0.188
  sub11                       20.657        41.614         0.386         0.026         0.187
  sub12                       17.724        35.094         0.321         0.024         0.155
  sub14                       15.732        31.800         0.298         0.020         0.144
  sub15                       20.231        39.321         0.389         0.028         0.182
  sub16                       13.129        25.518         0.249         0.019         0.117
  sub17                       12.049        23.208         0.222         0.017         0.105
  sub22                       62.582       119.432         1.186         0.090         0.554
  sub23                       36.683        72.439         0.776         0.051         0.357
  sub60                      243.520       456.962         4.842         0.298         2.321
  sub61                      302.151       564.434         5.627         0.386         2.710
  sub62                      313.722       596.076         6.119         0.388         2.938
  sub63                      223.275       410.850         4.468         0.314         2.075
  sub64                      305.877       553.773         5.626         0.410         2.687
  sub65                      313.037       569.066         5.795         0.415         2.772
  sub66                      176.068       321.340         3.608         0.236         1.687
  sub67                      466.222       877.505         8.365         0.616         4.045
  sub68                      332.037       626.413         6.347         0.429         3.034
  sub69                      298.258       568.561         5.590         0.393         2.674
  sub70                      502.897       962.303        10.037         0.699         4.710
  sub71                      206.745       396.330         4.242         0.246         2.030
  sub72                      164.385       293.107         3.069         0.210         1.476
  1                          349.075       671.606         7.102         0.495         3.297
  2                           42.749        75.577         1.214         0.073         0.518
  ------------------------------------------------------------------------------------------
  System                    4570.974      8595.115        88.408         6.057        41.983
  
  
  ******************
  Node Depth Summary
  ******************
  
  ---------------------------------------------------------------------------------
                                 Average  Maximum  Maximum  Time of Max    Reported
                                   Depth    Depth      HGL   Occurrence   Max Depth
  Node                 Type       Meters   Meters   Meters  days hr:min      Meters
  ---------------------------------------------------------------------------------
  WS02001211           JUNCTION     0.76     0.85     5.69     0  03:07        0.85
  WS02001212           JUNCTION     0.47     0.58     5.64     0  03:06        0.58
  WS02001213           JUNCTION     0.70     0.85     5.62     0  03:05        0.85
  WS02003069           JUNCTION     0.49     0.72     5.30     0  03:05        0.72
  WS02003072           JUNCTION     0.55     0.76     5.13     0  03:06        0.76
  WS02003073           JUNCTION     0.34     0.48     4.54     0  03:06        0.48
  WS02003060           JUNCTION     0.44     0.63     5.57     0  03:05        0.63
  WS02003066           JUNCTION     0.23     0.39     5.94     0  03:04        0.39
  WS02003059           JUNCTION     0.75     0.91     5.60     0  03:05        0.91
  WS02003067           JUNCTION     0.56     0.82     6.14     0  03:03        0.82
  WS02004401           JUNCTION     0.67     1.24     7.24     0  03:02        1.23
  WS02004402           JUNCTION     0.70     1.23     7.19     0  03:01        1.22
  WS02004403           JUNCTION     0.72     1.20     7.13     0  03:03        1.19
  WS02004404           JUNCTION     0.79     1.25     7.10     0  03:01        1.23
  WS02004406           JUNCTION     0.79     1.16     6.99     0  03:02        1.16
  WS02004409           JUNCTION     0.48     0.96     6.73     0  03:03        0.96
  WS02004410           JUNCTION     0.50     0.95     6.67     0  03:03        0.95
  WS02004411           JUNCTION     0.52     0.93     6.61     0  03:03        0.93
  WS02004412           JUNCTION     0.53     0.90     6.54     0  03:03        0.90
  WS02004413           JUNCTION     0.69     1.02     6.49     0  03:03        1.02
  WS02004405           JUNCTION     0.79     1.22     7.07     0  03:02        1.21
  WS02006109           JUNCTION     0.76     1.66     8.28     0  03:02        1.65
  WS02006110           JUNCTION     0.75     1.45     8.04     0  03:02        1.44
  WS02006111           JUNCTION     0.24     0.89     7.59     0  03:02        0.88
  WS02006112           JUNCTION     0.85     1.56     7.44     0  03:02        1.56
  WS02006113           JUNCTION     0.34     0.92     7.82     0  03:02        0.92
  WS02006115           JUNCTION     0.57     1.22     7.36     0  03:02        1.21
  WS02006116           JUNCTION     0.65     1.26     7.30     0  03:02        1.25
  WS02006230           JUNCTION     0.74     1.88     8.63     0  03:02        1.87
  WS02006231           JUNCTION     0.50     1.52     8.65     0  03:02        1.52
  WS02006232           JUNCTION     0.62     1.63     8.66     0  03:02        1.61
  WS02006234           JUNCTION     0.54     1.52     8.68     0  03:02        1.52
  WS02006235           JUNCTION     0.57     1.54     8.71     0  03:02        1.54
  WS02006238           JUNCTION     0.60     1.56     8.70     0  03:02        1.54
  WS02006240           JUNCTION     0.48     1.40     8.69     0  03:02        1.40
  WS02006242           JUNCTION     0.52     1.43     8.70     0  03:02        1.42
  WS02006243           JUNCTION     0.40     1.28     8.70     0  03:02        1.27
  WS02006245           JUNCTION     0.37     1.22     8.70     0  03:01        1.21
  WS02006247           JUNCTION     0.37     1.20     8.70     0  03:02        1.19
  WS02006248           JUNCTION     0.31     1.10     8.69     0  02:55        1.10
  WS02006249           JUNCTION     0.33     1.09     8.69     0  02:54        1.09
  WS02006239           JUNCTION     0.54     1.49     8.70     0  03:02        1.48
  WS02006251           JUNCTION     0.30     1.37     9.04     0  02:54        1.20
  WS02006252           JUNCTION     0.18     0.87     9.11     0  05:42        0.75
  WS02006253           JUNCTION     0.33     1.45     9.10     0  02:54        1.23
  WS02006256           JUNCTION     1.76     2.35     9.28     0  00:38        2.35
  WS02004138           JUNCTION     0.19     0.20     7.45     0  00:00        0.19
  WS02004139           JUNCTION     0.71     0.79     5.70     0  03:07        0.79
  WS02004407           JUNCTION     0.22     0.40     6.71     0  03:02        0.40
  WS02006228           JUNCTION     0.77     1.83     8.48     0  03:02        1.81
  WS02006229           JUNCTION     0.75     1.90     8.59     0  03:02        1.89
  WS02006280           JUNCTION     0.08     0.30     8.57     0  03:05        0.30
  WS02006284           JUNCTION     0.38     0.65     9.04     0  03:02        0.64
  WS02006287           JUNCTION     0.12     0.39     9.34     0  03:02        0.39
  WSF200               JUNCTION     0.21     0.44     5.67     0  03:04        0.44
  HS02004901           JUNCTION     0.14     0.38    10.20     0  03:01        0.37
  HS02004881           JUNCTION     0.01     0.05     9.08     0  03:01        0.05
  HS02004876           JUNCTION     0.05     0.16     9.19     0  03:01        0.16
  HS02004870           JUNCTION     0.02     0.09     9.38     0  03:01        0.09
  HS02004862           JUNCTION     0.02     0.11     9.49     0  03:01        0.11
  HS02004856           JUNCTION     0.08     0.15     9.58     0  03:01        0.15
  HS02004852           JUNCTION     0.01     0.07     9.59     0  03:02        0.07
  HS02004848           JUNCTION     0.01     0.07     9.67     0  03:01        0.07
  HS02004842           JUNCTION     0.34     0.40     9.67     0  03:01        0.40
  HS02004837           JUNCTION     0.03     0.09     9.67     0  03:01        0.09
  HS02004830           JUNCTION     0.04     0.10     9.57     0  03:01        0.10
  HS02004824           JUNCTION     0.03     0.13     9.53     0  03:02        0.13
  HS02004817           JUNCTION     0.45     0.69     9.54     0  03:02        0.69
  HS02004807           JUNCTION     0.14     0.36     9.53     0  03:02        0.36
  HS02004802           JUNCTION     0.17     0.39     9.52     0  03:02        0.39
  HS02004799           JUNCTION     0.14     0.46     9.68     0  03:01        0.46
  HS02004792           JUNCTION     0.04     0.22     9.74     0  03:01        0.21
  HS02004788           JUNCTION     0.03     0.16    10.05     0  03:02        0.16
  HS02004785           JUNCTION     0.06     0.25    10.15     0  03:02        0.25
  HS02004777           JUNCTION     0.16     0.39    10.19     0  03:01        0.39
  HS02004770           JUNCTION     0.13     0.37    10.20     0  03:01        0.36
  HS02004480           JUNCTION     0.10     0.38     9.62     0  03:01        0.38
  HS02004479           JUNCTION     0.14     0.42     9.62     0  03:01        0.42
  HS02004478           JUNCTION     0.07     0.28     9.50     0  03:01        0.28
  YS02001745           JUNCTION     0.70     0.94     8.46     0  03:01        0.94
  YS02001748           JUNCTION     1.07     1.73     8.81     0  02:36        1.37
  YS02001751           JUNCTION     1.25     1.79     8.67     0  02:36        1.56
  YS02001754           JUNCTION     1.49     1.87     8.48     0  02:36        1.82
  YS02001762           JUNCTION     1.69     2.05     8.45     0  03:00        2.02
  YS02001765           JUNCTION     1.64     1.99     8.44     0  03:00        1.97
  YS02001767           JUNCTION     1.61     1.95     8.44     0  03:00        1.93
  YS02001770           JUNCTION     1.60     1.94     8.43     0  03:00        1.92
  YS02001774           JUNCTION     1.67     2.00     8.42     0  02:30        1.98
  YS02001779           JUNCTION     1.42     1.68     8.37     0  02:30        1.68
  YS02001882           JUNCTION     0.61     1.63     8.35     0  03:01        1.63
  YS02001884           JUNCTION     0.71     1.74     8.35     0  03:00        1.73
  YS02001759           JUNCTION     1.72     2.08     8.44     0  03:00        2.06
  YS02001887           JUNCTION     0.78     1.82     8.35     0  02:59        1.81
  YS02001890           JUNCTION     0.81     1.81     8.32     0  02:50        1.81
  YS02001898           JUNCTION     0.58     1.56     8.30     0  02:54        1.56
  YS02001901           JUNCTION     0.70     1.68     8.29     0  03:02        1.67
  YS02001904           JUNCTION     0.67     1.64     8.27     0  02:57        1.63
  YS02001907           JUNCTION     1.00     1.96     8.25     0  02:50        1.96
  YS02001910           JUNCTION     0.79     1.79     8.29     0  02:51        1.77
  YS02001915           JUNCTION     0.60     1.60     8.32     0  02:51        1.59
  YS02001918           JUNCTION     0.34     1.28     8.35     0  02:51        1.27
  YS02001619           JUNCTION     1.21     1.51     8.44     0  02:36        1.48
  YS02001629           JUNCTION     1.55     1.85     8.40     0  02:36        1.84
  YS02001641           JUNCTION     1.65     1.93     8.37     0  02:53        1.93
  YS02001644           JUNCTION     1.65     1.92     8.35     0  02:39        1.92
  YS02001652           JUNCTION     1.50     2.09     8.69     0  02:25        1.83
  YS02001655           JUNCTION     1.28     2.19     9.04     0  02:25        1.59
  YS02001920           JUNCTION     0.43     1.36     8.37     0  02:51        1.34
  YS02001923           JUNCTION     0.26     1.12     8.38     0  02:51        1.11
  YS02001926           JUNCTION     0.30     0.95     8.39     0  02:51        0.94
  YS02001929           JUNCTION     0.18     0.71     8.41     0  02:52        0.71
  YS02001658           JUNCTION     1.02     1.89     9.03     0  02:29        1.33
  YS02001661           JUNCTION     0.80     1.91     9.32     0  02:53        1.09
  YS02001664           JUNCTION     0.36     0.57     8.50     0  02:42        0.55
  YS02001622           JUNCTION     1.23     1.52     8.43     0  02:36        1.50
  YS02001633           JUNCTION     1.64     1.95     8.40     0  02:54        1.94
  YS02001649           JUNCTION     1.69     2.05     8.44     0  02:43        2.02
  YS02001757           JUNCTION     1.82     2.17     8.43     0  02:53        2.15
  YS02001895           JUNCTION     0.58     1.57     8.31     0  02:55        1.56
  YS02001625           JUNCTION     1.51     1.78     8.38     0  02:32        1.78
  YS02163301           JUNCTION     1.58     1.88     8.40     0  02:53        1.87
  YS02163601           JUNCTION     1.69     1.99     8.39     0  02:52        1.98
  YS02164001           JUNCTION     1.63     1.92     8.38     0  02:50        1.91
  YS02001647           JUNCTION     1.49     1.80     8.41     0  02:52        1.77
  YSB1154              JUNCTION     0.27     0.57     9.62     0  03:01        0.57
  YSB6556              JUNCTION     0.17     0.45     9.62     0  03:02        0.45
  YSB1174              JUNCTION     0.23     0.52     9.62     0  03:01        0.51
  YSB1171              JUNCTION     0.43     0.72     9.62     0  03:01        0.72
  YS02006553           JUNCTION     1.00     1.97     8.25     0  03:03        1.96
  YS02006561           JUNCTION     0.34     1.06     7.72     0  03:19        1.05
  YS02006556           JUNCTION     0.97     1.94     8.25     0  03:03        1.92
  YS02006558           JUNCTION     1.01     1.99     8.25     0  03:03        1.96
  YS02001783           JUNCTION     0.57     1.44     7.58     0  03:19        1.43
  YS02001784           JUNCTION     0.58     1.38     7.45     0  03:19        1.37
  YS02001786           JUNCTION     0.51     1.30     7.33     0  02:23        1.21
  YS02001788           JUNCTION     0.43     1.24     7.22     0  02:23        1.07
  YS02001790           JUNCTION     0.54     1.74     7.38     0  02:21        1.23
  YS02001791           JUNCTION     0.48     1.47     6.94     0  02:21        1.21
  YS02001793           JUNCTION     0.65     1.88     6.71     0  02:23        1.78
  WSC                  OUTFALL      0.33     0.48     1.15     0  03:07        0.48
  JK-storage           STORAGE      2.80     5.80     6.60     0  02:22        5.80
  CC-storage           STORAGE      1.08     1.41     8.41     0  03:32        1.41
  XR-storage           STORAGE      6.20     7.72     5.72     0  02:57        7.72
  
  
  *******************
  Node Inflow Summary
  *******************
  
  -------------------------------------------------------------------------------------------------
                                  Maximum  Maximum                  Lateral       Total        Flow
                                  Lateral    Total  Time of Max      Inflow      Inflow     Balance
                                   Inflow   Inflow   Occurrence      Volume      Volume       Error
  Node                 Type           LPS      LPS  days hr:min    10^6 ltr    10^6 ltr     Percent
  -------------------------------------------------------------------------------------------------
  WS02001211           JUNCTION      7.35   390.29     0  03:16       0.207          10       0.399
  WS02001212           JUNCTION      0.00   393.17     0  03:16           0        9.99       0.242
  WS02001213           JUNCTION      0.00   395.65     0  03:16           0        9.96       0.284
  WS02003069           JUNCTION      0.32  1333.10     0  03:05     0.00902        17.7       0.197
  WS02003072           JUNCTION      0.00  1332.76     0  03:05           0        17.7       0.235
  WS02003073           JUNCTION      1.82  1334.66     0  03:06      0.0514        17.7       0.267
  WS02003060           JUNCTION     16.53  1333.10     0  03:04       0.466        17.8       0.189
  WS02003066           JUNCTION      0.00   938.50     0  03:04           0        7.42       0.064
  WS02003059           JUNCTION      0.00   398.56     0  03:15           0        9.94       0.407
  WS02003067           JUNCTION      0.00   938.00     0  03:04           0        7.43       0.133
  WS02004401           JUNCTION      0.00   939.75     0  03:02           0        7.69       0.308
  WS02004402           JUNCTION      0.00   939.74     0  03:02           0        7.66       0.287
  WS02004403           JUNCTION      0.00   940.26     0  03:02           0        7.64       0.258
  WS02004404           JUNCTION      0.16   940.58     0  03:02     0.00457        7.63       0.193
  WS02004406           JUNCTION      0.00   940.45     0  03:02           0        7.59       0.467
  WS02004409           JUNCTION      0.00   939.64     0  03:02           0        7.55       0.245
  WS02004410           JUNCTION      0.00   938.29     0  03:03           0        7.53       0.272
  WS02004411           JUNCTION      0.00   937.85     0  03:03           0        7.51       0.275
  WS02004412           JUNCTION      0.00   937.52     0  03:03           0        7.49       0.292
  WS02004413           JUNCTION      0.00   937.89     0  03:04           0        7.47       0.429
  WS02004405           JUNCTION      0.04   941.21     0  03:02     0.00107        7.61       0.285
  WS02006109           JUNCTION      1.23   915.36     0  03:03      0.0347        7.74       0.273
  WS02006110           JUNCTION      0.00   915.26     0  03:02           0        7.72       0.294
  WS02006111           JUNCTION      0.00   915.79     0  03:03           0        7.68       0.066
  WS02006112           JUNCTION     30.67   939.09     0  03:02      0.0853        7.76       0.416
  WS02006113           JUNCTION      0.00   915.38     0  03:03           0        7.69       0.156
  WS02006115           JUNCTION      0.00   939.11     0  03:02           0        7.73       0.306
  WS02006116           JUNCTION      0.00   940.01     0  03:02           0        7.71       0.260
  WS02006230           JUNCTION     10.28   532.89     0  05:43        0.29        5.32       0.266
  WS02006231           JUNCTION      0.00   522.68     0  05:43           0        5.04       0.235
  WS02006232           JUNCTION      0.00   522.56     0  05:43           0        5.06       0.377
  WS02006234           JUNCTION      0.00   522.24     0  05:49           0        5.07       0.179
  WS02006235           JUNCTION      0.00   522.85     0  05:44           0        5.21       0.263
  WS02006238           JUNCTION      0.00   327.47     0  05:45           0        1.67       0.494
  WS02006240           JUNCTION      0.00   327.46     0  05:45           0        1.59       1.023
  WS02006242           JUNCTION      0.00   327.24     0  05:45           0        1.56       1.184
  WS02006243           JUNCTION      0.00   327.36     0  05:45           0        1.53       0.929
  WS02006245           JUNCTION      0.00   327.43     0  05:45           0        1.53       0.839
  WS02006247           JUNCTION      0.00   336.97     0  05:40           0        1.53       0.571
  WS02006248           JUNCTION      0.00   356.60     0  05:40           0        1.53       0.363
  WS02006249           JUNCTION      0.00   544.15     0  03:01           0        1.96       0.555
  WS02006239           JUNCTION      0.00   327.65     0  05:45           0        1.63       0.780
  WS02006251           JUNCTION      0.08   544.74     0  03:01     0.00217        1.99       0.430
  WS02006252           JUNCTION      0.00   400.00     0  03:00           0         1.5       0.032
  WS02006253           JUNCTION      3.75   143.72     0  03:01      0.0103       0.495       0.828
  WS02006256           JUNCTION      0.00   983.00     0  02:30           0        10.7       0.019
  WS02004138           JUNCTION      0.00   380.00     0  00:00           0        9.86       0.068
  WS02004139           JUNCTION      0.32   394.45     0  00:00     0.00905        9.86       0.459
  WS02004407           JUNCTION      0.00   940.40     0  03:02           0        7.55       0.112
  WS02006228           JUNCTION      0.00   913.78     0  03:03           0        7.72       0.208
  WS02006229           JUNCTION      0.00   916.51     0  03:01           0        7.73       0.195
  WS02006280           JUNCTION      0.00   680.18     0  03:02           0        2.43       0.011
  WS02006284           JUNCTION      0.10   679.05     0  03:02      0.0027        2.43       0.045
  WS02006287           JUNCTION      0.00   677.67     0  03:02           0        2.43       0.031
  WSF200               JUNCTION      0.00   938.66     0  03:04           0        7.42       0.060
  HS02004901           JUNCTION     37.63    37.63     0  03:01       0.103       0.103       1.741
  HS02004881           JUNCTION     14.26   140.54     0  03:01      0.0422       0.463       0.073
  HS02004876           JUNCTION     25.66   127.65     0  03:01      0.0814       0.422       0.131
  HS02004870           JUNCTION     26.26   103.59     0  03:01      0.0799        0.34       0.035
  HS02004862           JUNCTION     25.49    79.37     0  03:01      0.0888       0.261       0.068
  HS02004856           JUNCTION     19.64    55.41     0  03:01      0.0601       0.173       0.842
  HS02004852           JUNCTION      0.00    37.84     0  03:01           0       0.113       0.053
  HS02004848           JUNCTION     55.75    55.75     0  03:01       0.197       0.197       0.028
  HS02004842           JUNCTION      0.00    16.84     0  03:01           0       0.097      15.491
  HS02004837           JUNCTION     50.35    65.69     0  03:01       0.318       0.402       0.204
  HS02004830           JUNCTION      0.15    64.80     0  03:01     0.00423       0.392       0.316
  HS02004824           JUNCTION     65.57   128.44     0  03:01       0.251       0.642       0.086
  HS02004817           JUNCTION      0.60   124.47     0  03:01      0.0169       0.658       2.599
  HS02004807           JUNCTION     48.45   165.69     0  03:01       0.147       0.788       0.554
  HS02004802           JUNCTION      0.00   165.30     0  03:04           0       0.785       0.505
  HS02004799           JUNCTION     38.67   446.08     0  03:01       0.119        1.42       0.191
  HS02004792           JUNCTION    184.82   411.80     0  03:01        0.54         1.3       0.033
  HS02004788           JUNCTION     58.68   233.44     0  03:02       0.219       0.758       0.052
  HS02004785           JUNCTION      0.15   182.22     0  03:01     0.00423        0.54       0.094
  HS02004777           JUNCTION      0.03   185.01     0  03:01    0.000846       0.541       0.972
  HS02004770           JUNCTION    154.22   188.93     0  03:01       0.441       0.542       0.577
  HS02004480           JUNCTION      0.00   517.26     0  03:01           0        1.66       0.069
  HS02004479           JUNCTION      0.00    75.46     0  03:02           0       0.258       0.286
  HS02004478           JUNCTION      0.00   677.09     0  03:02           0        2.43       0.011
  YS02001745           JUNCTION    438.14   438.14     0  03:01        3.01        3.02       0.374
  YS02001748           JUNCTION      0.04   586.96     0  02:31     0.00127        3.01       0.712
  YS02001751           JUNCTION      0.01   442.13     0  03:01     0.00031        2.98       0.799
  YS02001754           JUNCTION      0.26   442.57     0  03:01     0.00733        2.96       0.845
  YS02001762           JUNCTION      0.00   315.87     0  02:43           0        1.88       1.145
  YS02001765           JUNCTION      0.00   316.80     0  02:43           0        1.88       1.314
  YS02001767           JUNCTION      0.54   317.06     0  02:42      0.0151        1.91       1.916
  YS02001770           JUNCTION    552.50   648.99     0  03:01        3.37        4.04       0.796
  YS02001774           JUNCTION      0.00   650.06     0  03:01           0        2.78       0.919
  YS02001779           JUNCTION      0.01   649.85     0  03:01    0.000141        2.75       0.569
  YS02001882           JUNCTION      0.00    12.33     0  02:43           0      0.0234       9.741
  YS02001884           JUNCTION      0.00    21.22     0  02:40           0      0.0598      11.082
  YS02001759           JUNCTION    536.49   621.15     0  02:43        3.11        4.29       0.536
  YS02001887           JUNCTION    679.97   680.83     0  03:01        3.57         3.6       0.232
  YS02001890           JUNCTION      0.00   681.04     0  03:01           0        3.55       0.258
  YS02001898           JUNCTION      0.00   517.99     0  03:07           0        3.45       0.074
  YS02001901           JUNCTION      0.00   517.93     0  03:01           0        3.45       0.202
  YS02001904           JUNCTION      0.00   517.88     0  02:59           0        3.44       0.176
  YS02001907           JUNCTION      0.00  1111.37     0  03:01           0        7.77       0.304
  YS02001910           JUNCTION      0.00   594.75     0  03:01           0        4.34       0.264
  YS02001915           JUNCTION    389.26   594.85     0  03:01        2.52        4.35       0.139
  YS02001918           JUNCTION      0.00   260.81     0  02:52           0        1.84       0.079
  YS02001619           JUNCTION    380.66   380.66     0  03:01        2.51        2.51       0.485
  YS02001629           JUNCTION      0.00   196.06     0  02:39           0        1.59       1.851
  YS02001641           JUNCTION      0.00   413.29     0  02:39           0        4.45       0.478
  YS02001644           JUNCTION    416.76  1491.01     0  03:01         2.9        12.3       0.213
  YS02001652           JUNCTION      0.00   502.68     0  03:01           0        2.61       0.910
  YS02001655           JUNCTION      0.15   501.84     0  03:01     0.00434        2.64       0.923
  YS02001920           JUNCTION      2.87   261.00     0  02:52      0.0809        1.84       0.161
  YS02001923           JUNCTION      0.04   233.55     0  02:52     0.00106        1.76       0.052
  YS02001926           JUNCTION      0.05   200.25     0  03:01     0.00147        1.75       0.199
  YS02001929           JUNCTION    189.18   189.18     0  03:01        1.75        1.75       0.038
  YS02001658           JUNCTION      0.00   603.03     0  02:29           0        2.67       0.835
  YS02001661           JUNCTION      0.00   660.86     0  02:43           0         2.8       0.333
  YS02001664           JUNCTION    492.63   492.63     0  03:01        2.67        2.79       0.203
  YS02001622           JUNCTION      0.00   381.44     0  03:01           0         2.5       1.291
  YS02001633           JUNCTION    423.29   423.29     0  03:01        2.99        4.52       0.712
  YS02001649           JUNCTION      0.00   876.22     0  02:39           0        7.02       0.532
  YS02001757           JUNCTION      0.00  1680.42     0  02:40           0        8.73       1.063
  YS02001895           JUNCTION      0.00   518.18     0  03:00           0        3.45       0.144
  YS02001625           JUNCTION      0.00   407.44     0  03:01           0        2.47       1.601
  YS02163301           JUNCTION      0.00   208.52     0  02:33           0        1.57       1.575
  YS02163601           JUNCTION      0.11   412.55     0  02:39      0.0031        4.48       0.682
  YS02164001           JUNCTION      0.00   412.84     0  02:39           0        4.46       0.461
  YS02001647           JUNCTION      0.00   681.68     0  03:01           0        6.32       0.450
  YSB1154              JUNCTION     44.76    44.76     0  03:01       0.144       0.144       1.017
  YSB6556              JUNCTION      0.00    43.28     0  03:01           0       0.145       0.869
  YSB1174              JUNCTION     38.10    38.10     0  03:01       0.106       0.107       1.221
  YSB1171              JUNCTION      0.00    76.93     0  03:01           0       0.257       2.525
  YS02006553           JUNCTION      0.00   718.89     0  02:51           0        6.91       0.221
  YS02006561           JUNCTION      0.00  1151.07     0  03:01           0        10.1       0.004
  YS02006556           JUNCTION      0.00   718.62     0  02:51           0        6.92       0.158
  YS02006558           JUNCTION    587.14  1152.09     0  03:00        3.28        10.2       0.052
  YS02001783           JUNCTION      0.00  1151.05     0  03:01           0        10.1       0.021
  YS02001784           JUNCTION      1.06  1152.18     0  03:01      0.0299        10.2       0.035
  YS02001786           JUNCTION      0.06  1151.88     0  03:00     0.00159        10.2       0.035
  YS02001788           JUNCTION      0.07  1151.82     0  03:00       0.002        10.2       0.021
  YS02001790           JUNCTION      0.15  1168.19     0  02:59     0.00437        10.2       0.015
  YS02001791           JUNCTION      0.00  1262.75     0  02:51           0        10.2       0.004
  YS02001793           JUNCTION      0.00  1230.74     0  02:56           0        10.2      -0.011
  WSC                  OUTFALL       0.00  1334.78     0  03:07           0        17.7       0.000
  JK-storage           STORAGE       0.00  1200.88     0  02:51           0        10.3     -10.211
  CC-storage           STORAGE       0.00  1681.19     0  02:40           0        5.52       1.182
  XR-storage           STORAGE    1024.87  1024.87     0  03:01        12.7        13.3      -0.002
  
  
  **********************
  Node Surcharge Summary
  **********************
  
  Surcharging occurs when water rises above the top of the highest conduit.
  ---------------------------------------------------------------------
                                               Max. Height   Min. Depth
                                   Hours       Above Crown    Below Rim
  Node                 Type      Surcharged         Meters       Meters
  ---------------------------------------------------------------------
  WS02004401           JUNCTION        0.55          0.241        1.419
  WS02004402           JUNCTION        0.59          0.227        1.513
  WS02004403           JUNCTION        0.60          0.199        1.831
  WS02004404           JUNCTION        0.81          0.247        2.533
  WS02004406           JUNCTION        0.73          0.164        2.286
  WS02004413           JUNCTION        0.20          0.023        2.177
  WS02004405           JUNCTION        0.77          0.218        2.582
  WS02006109           JUNCTION        2.14          0.842        0.978
  WS02006110           JUNCTION        1.19          0.544        1.306
  WS02006111           JUNCTION        0.13          0.077        1.793
  WS02006112           JUNCTION        1.30          0.561        1.119
  WS02006113           JUNCTION        0.16          0.125        1.805
  WS02006115           JUNCTION        0.37          0.210        2.040
  WS02006116           JUNCTION        0.40          0.203        2.087
  WS02006230           JUNCTION        0.96          0.800        0.770
  WS02006231           JUNCTION        1.10          0.812        0.718
  WS02006232           JUNCTION        1.75          0.926        0.554
  WS02006234           JUNCTION        1.23          0.804        0.436
  WS02006235           JUNCTION        1.46          0.831        0.459
  WS02006238           JUNCTION        1.52          0.837        0.593
  WS02006240           JUNCTION        1.08          0.691        0.699
  WS02006242           JUNCTION        1.10          0.700        0.120
  WS02006243           JUNCTION        0.89          0.566        0.204
  WS02006245           JUNCTION        0.82          0.507        0.343
  WS02006247           JUNCTION        0.82          0.488        0.272
  WS02006248           JUNCTION        0.76          0.380        0.000
  WS02006249           JUNCTION        0.77          0.390        0.000
  WS02006239           JUNCTION        1.17          0.750        0.540
  WS02006251           JUNCTION        0.58          0.341        0.839
  WS02006252           JUNCTION        0.74          0.468        0.632
  WS02006253           JUNCTION        0.59          0.411        2.069
  WS02006256           JUNCTION        6.45          2.050        0.000
  WS02006228           JUNCTION        2.10          0.997        1.203
  YS02001748           JUNCTION        5.22          0.655        0.535
  YS02001751           JUNCTION        5.36          0.788        0.412
  YS02001754           JUNCTION        5.58          0.821        0.329
  YS02001762           JUNCTION        5.75          1.047        0.103
  YS02001765           JUNCTION        5.72          0.995        0.105
  YS02001767           JUNCTION        5.70          0.952        0.078
  YS02001770           JUNCTION        5.68          0.907        0.013
  YS02001774           JUNCTION        5.74          0.998        0.052
  YS02001779           JUNCTION        5.56          0.680        0.000
  YS02001882           JUNCTION        1.07          0.633        0.197
  YS02001884           JUNCTION        1.09          0.677        0.193
  YS02001759           JUNCTION        5.78          1.080        0.130
  YS02001887           JUNCTION        1.17          0.766        0.184
  YS02001890           JUNCTION        1.20          0.760        0.000
  YS02001898           JUNCTION        1.02          0.532        0.208
  YS02001901           JUNCTION        1.13          0.676        0.194
  YS02001904           JUNCTION        1.11          0.636        0.214
  YS02001907           JUNCTION        1.93          0.950        0.000
  YS02001910           JUNCTION        1.24          0.786        0.314
  YS02001915           JUNCTION        1.05          0.600        0.400
  YS02001918           JUNCTION        0.86          0.281        0.529
  YS02001619           JUNCTION        5.37          0.511        0.099
  YS02001629           JUNCTION        5.38          0.470        0.000
  YS02001641           JUNCTION        5.73          0.935        0.165
  YS02001644           JUNCTION        5.73          0.920        0.000
  YS02001652           JUNCTION        5.61          1.065        0.065
  YS02001655           JUNCTION        5.40          1.185        0.015
  YS02001920           JUNCTION        0.89          0.364        0.776
  YS02001658           JUNCTION        5.25          0.892        0.408
  YS02001661           JUNCTION        0.05          0.842        0.548
  YS02001622           JUNCTION        5.41          0.522        0.098
  YS02001633           JUNCTION        5.71          0.926        0.134
  YS02001649           JUNCTION        5.75          1.050        0.000
  YS02001757           JUNCTION        5.86          1.172        0.038
  YS02001895           JUNCTION        1.04          0.566        0.184
  YS02001625           JUNCTION        5.64          0.780        0.000
  YS02163301           JUNCTION        5.69          0.882        0.148
  YS02163601           JUNCTION        5.75          0.988        0.092
  YS02164001           JUNCTION        5.72          0.918        0.182
  YS02001647           JUNCTION        5.62          0.802        0.098
  YS02006553           JUNCTION        2.01          0.971        0.219
  YS02006561           JUNCTION        0.86          0.259        0.891
  YS02006556           JUNCTION        1.47          0.903        0.447
  YS02006558           JUNCTION        1.43          0.887        0.513
  YS02001783           JUNCTION        1.31          0.640        0.960
  YS02001784           JUNCTION        1.27          0.579        0.911
  YS02001786           JUNCTION        1.09          0.505        0.925
  YS02001788           JUNCTION        0.78          0.438        1.042
  YS02001790           JUNCTION        1.92          0.939        0.218
  YS02001791           JUNCTION        2.01          0.669        1.251
  YS02001793           JUNCTION        2.35          0.882        1.718
  
  
  *********************
  Node Flooding Summary
  *********************
  
  Flooding refers to all water that overflows a node, whether it ponds or not.
  --------------------------------------------------------------------------
                                                             Total   Maximum
                                 Maximum   Time of Max       Flood    Ponded
                        Hours       Rate    Occurrence      Volume     Depth
  Node                 Flooded       LPS   days hr:min    10^6 ltr    Meters
  --------------------------------------------------------------------------
  WS02006248              0.07     15.27      0  03:03       0.002     0.000
  WS02006249              0.56    458.35      0  03:02       0.427     0.000
  WS02006256              3.67    830.95      0  03:02       7.068     0.000
  YS02001779              3.17    649.64      0  03:01       2.735     0.000
  YS02001890              0.34    164.01      0  03:01       0.085     0.000
  YS02001907              0.72    560.20      0  03:05       0.846     0.000
  YS02001629              0.01      1.59      0  02:36       0.000     0.000
  YS02001644              5.04   1490.85      0  03:01      10.945     0.000
  YS02001649              0.01     31.55      0  02:53       0.000     0.000
  YS02001625              1.38    407.25      0  03:01       0.855     0.000
  JK-storage              0.90    479.22      0  04:43       0.766     0.000
  XR-storage              3.49    644.83      0  03:01       2.672     0.000
  
  
  **********************
  Storage Volume Summary
  **********************
  
  --------------------------------------------------------------------------------------------------
                         Average     Avg  Evap Exfil       Maximum     Max    Time of Max    Maximum
                          Volume    Pcnt  Pcnt  Pcnt        Volume    Pcnt     Occurrence    Outflow
  Storage Unit           1000 m3    Full  Loss  Loss       1000 m3    Full    days hr:min        LPS
  --------------------------------------------------------------------------------------------------
  JK-storage               0.141      48     0     0         0.291     100       0  02:22     983.00
  CC-storage               3.009      19     0     0         3.935      25       0  03:32     400.00
  XR-storage               0.744      80     0     0         0.926     100       0  02:57     380.00
  
  
  ***********************
  Outfall Loading Summary
  ***********************
  
  ---------------------------------------------------------------------------------------------------------------------------------
                         Flow       Avg       Max       Total         Total         Total         Total         Total         Total
                         Freq      Flow      Flow      Volume           COD            SS            TN            TP         NH4-N
  Outfall Node           Pcnt       LPS       LPS    10^6 ltr            kg            kg            kg            kg            kg
  ---------------------------------------------------------------------------------------------------------------------------------
  WSC                   99.99    714.93   1334.78      17.676      2207.331      3806.356       144.704        17.115        87.764
  ---------------------------------------------------------------------------------------------------------------------------------
  System                99.99    714.93   1334.78      17.676      2207.331      3806.356       144.704        17.115        87.764
  
  
  ********************
  Link Flow Summary
  ********************
  
  -----------------------------------------------------------------------------
                                 Maximum  Time of Max   Maximum    Max/    Max/
                                  |Flow|   Occurrence   |Veloc|    Full    Full
  Link                 Type          LPS  days hr:min     m/sec    Flow   Depth
  -----------------------------------------------------------------------------
  WS02003066WSF200     CONDUIT    938.66     0  03:04      3.00    0.16    0.32
  WS02006287WS02006284 CONDUIT    678.95     0  03:02      2.38    0.31    0.39
  WS02006284WS02006280 CONDUIT    680.18     0  03:02      2.62    0.28    0.37
  WS02006280WS02006229 CONDUIT    680.24     0  03:02      3.84    0.15    0.50
  WS02006229WS02006228 CONDUIT    913.78     0  03:03      1.82    3.03    1.00
  WS02006256WS02006235 CONDUIT    263.60     0  07:02      3.73    2.79    1.00
  WS02006253WS02006251 CONDUIT    144.11     0  03:01      0.56    0.43    1.00
  WS02006252WS02006251 CONDUIT    404.29     0  05:42      3.22    1.48    1.00
  WS02006251WS02006249 CONDUIT    544.15     0  03:01      1.41    1.57    1.00
  WS02006249WS02006248 CONDUIT    356.60     0  05:40      1.10    1.95    1.00
  WS02006248WS02006247 CONDUIT    336.97     0  05:40      1.02    0.73    1.00
  WS02006247WS02006245 CONDUIT    327.43     0  05:45      0.94    2.60    1.00
  WS02006245WS02006243 CONDUIT    327.36     0  05:45      1.05    0.97    1.00
  WS02006243WS02006242 CONDUIT    327.24     0  05:45      0.90    0.70    1.00
  WS02006242WS02006240 CONDUIT    327.46     0  05:45      0.85    1.30    1.00
  WS02006240WS02006239 CONDUIT    327.65     0  05:45      0.93    1.03    1.00
  WS02006239WS02006238 CONDUIT    327.47     0  05:45      0.85    1.05    1.00
  WS02006238WS02006235 CONDUIT    328.16     0  05:45      0.85    0.73    1.00
  WS02006235WS02006234 CONDUIT    522.24     0  05:49      1.36    5.51    1.00
  WS02006234WS02006232 CONDUIT    522.56     0  05:43      1.36    1.06    1.00
  WS02006232WS02006231 CONDUIT    522.68     0  05:43      1.36    1.10    1.00
  WS02006231WS02006230 CONDUIT    522.61     0  05:43      1.36    7.93    1.00
  WS02006230WS02006229 CONDUIT    533.07     0  05:43      1.39   11.86    1.00
  WS02006228WS02006109 CONDUIT    914.13     0  03:03      1.82    3.99    1.00
  WS02006116WS02004401 CONDUIT    939.75     0  03:02      1.20    1.30    1.00
  WS02006115WS02006116 CONDUIT    940.01     0  03:02      1.20    1.21    1.00
  WS02006113WS02006111 CONDUIT    915.79     0  03:03      2.59    1.10    1.00
  WS02006112WS02006115 CONDUIT    939.11     0  03:02      1.20    0.55    1.00
  WS02006111WS02006112 CONDUIT    915.93     0  03:02      1.82    0.44    1.00
  WS02006110WS02006113 CONDUIT    915.38     0  03:03      1.82    0.83    1.00
  WS02006109WS02006110 CONDUIT    915.26     0  03:02      1.82    1.76    1.00
  WS02004411WS02004412 CONDUIT    937.52     0  03:03      1.24    1.33    0.92
  WS02004401WS02004402 CONDUIT    939.74     0  03:02      1.20    1.13    1.00
  WS02004413WS02003067 CONDUIT    938.00     0  03:04      1.55    0.40    0.72
  WS02004412WS02004413 CONDUIT    937.89     0  03:04      1.22    0.63    0.95
  WS02004410WS02004411 CONDUIT    937.85     0  03:03      1.23    1.28    0.94
  WS02004409WS02004410 CONDUIT    938.29     0  03:03      1.21    1.21    0.95
  WS02004407WS02004409 CONDUIT    939.64     0  03:02      1.67    0.33    0.68
  WS02004406WS02004407 CONDUIT    940.40     0  03:02      1.60    0.42    0.70
  WS02004405WS02004406 CONDUIT    940.45     0  03:02      1.20    1.86    1.00
  WS02004404WS02004405 CONDUIT    941.17     0  03:02      1.20    9.22    1.00
  WS02004403WS02004404 CONDUIT    940.41     0  03:02      1.20    0.68    1.00
  WS02004402WS02004403 CONDUIT    940.26     0  03:02      1.20    1.35    1.00
  WS02004139WS02001211 CONDUIT    382.94     0  03:16      0.90    0.48    0.64
  WS02004138WS02004139 CONDUIT    394.13     0  00:00      3.62    0.08    0.47
  WS02003067WS02003066 CONDUIT    938.50     0  03:04      1.65    0.30    0.50
  WS02001213WS02003059 CONDUIT    398.56     0  03:15      0.89    0.66    0.87
  WS02001212WS02001213 CONDUIT    395.65     0  03:16      1.32    0.61    0.56
  WS02001211WS02001212 CONDUIT    393.17     0  03:16      0.78    0.30    0.71
  WS02003072WS02003073 CONDUIT   1332.84     0  03:06      1.96    2.88    0.58
  WS02003069WS02003072 CONDUIT   1332.76     0  03:05      1.82    0.64    0.62
  WS02003060WS02003069 CONDUIT   1332.78     0  03:05      2.03    0.52    0.56
  WS02003059WS02003060 CONDUIT    403.12     0  06:09      0.95    0.26    0.77
  HS02004901HS02004770 CONDUIT     37.21     0  03:01      0.10    0.14    0.53
  HS02004876HS02004881 CONDUIT    127.65     0  03:01      1.21    1.36    0.15
  HS02004870HS02004876 CONDUIT    103.11     0  03:01      0.82    0.07    0.18
  HS02004842HS02004848 CONDUIT     16.84     0  03:01      0.07    0.01    0.33
  HS02004837HS02004842 CONDUIT     17.91     0  03:03      0.42    0.01    0.35
  HS02004830HS02004837 CONDUIT     64.65     0  03:01      0.67    0.06    0.14
  HS02004824HS02004830 CONDUIT     64.12     0  03:02      0.62    0.08    0.16
  HS02004817HS02004824 CONDUIT    123.87     0  03:01      0.31    0.06    0.58
  HS02004770HS02004777 CONDUIT    184.98     0  03:01      0.49    0.34    0.54
  HS02004799HS02004480 CONDUIT    444.37     0  03:01      1.07    0.56    0.60
  HS02004792HS02004799 CONDUIT    408.47     0  03:01      1.20    0.25    0.49
  HS02004788HS02004792 CONDUIT    232.95     0  03:02      1.28    0.15    0.26
  HS02004785HS02004788 CONDUIT    181.79     0  03:02      0.91    1.37    0.29
  HS02004777HS02004785 CONDUIT    182.07     0  03:01      0.57    0.22    0.45
  HS02004480HS02004478 CONDUIT    517.40     0  03:01      1.55    2.18    0.48
  HS02004479HS02004480 CONDUIT     77.34     0  03:02      0.30    0.07    0.57
  HS02004862HS02004870 CONDUIT     79.03     0  03:01      0.80    0.09    0.14
  HS02004848HS02004852 CONDUIT     37.84     0  03:01      0.53    0.04    0.10
  HS02004856HS02004862 CONDUIT     54.77     0  03:01      0.59    0.05    0.13
  HS02004852HS02004856 CONDUIT     37.76     0  03:02      0.34    0.04    0.16
  HS02004802HS02004478 CONDUIT    170.16     0  03:04      0.54    0.15    0.48
  HS02004478WS02006287 CONDUIT    677.67     0  03:02      2.11    0.19    0.36
  HS02004817HS02004807 CONDUIT    128.13     0  03:04      0.25    0.08    0.75
  HS02004807HS02004802 CONDUIT    165.30     0  03:04      0.46    0.32    0.53
  YS02001759YS02001757 CONDUIT    621.43     0  02:43      0.79    0.44    1.00
  YS02001762YS02001759 CONDUIT    314.69     0  02:43      0.40    0.36    1.00
  YS02001765YS02001762 CONDUIT    315.87     0  02:43      0.40    0.30    1.00
  YS02001770YS02001767 CONDUIT    316.52     0  02:42      0.40    1.25    1.00
  YS02001774YS02001770 CONDUIT    650.06     0  03:01      0.83    0.42    1.00
  YS02001779YS02001774 CONDUIT    649.85     0  03:01      0.83    0.33    1.00
  YS02001649YS02001757 CONDUIT    876.49     0  02:39      1.12    0.53    1.00
  YS02001767YS02001765 CONDUIT    316.80     0  02:43      0.40    0.40    1.00
  YS02006561YS02001783 CONDUIT   1151.05     0  03:01      2.29    0.60    1.00
  YS02001783YS02001784 CONDUIT   1151.12     0  03:01      2.29    1.59    1.00
  YS02001784YS02001785 CONDUIT   1151.82     0  03:00      2.29    2.68    1.00
  YS02001788YS02001790 CONDUIT   1168.04     0  02:59      2.74    0.86    1.00
  YS02001790YS02001791 CONDUIT   1262.75     0  02:51      3.40    1.37    1.00
  YS02001791YS02001793 CONDUIT   1230.74     0  02:56      6.47    0.53    1.00
  YS02001910YS02001907 CONDUIT    594.75     0  03:01      0.76    0.34    1.00
  YS02001786YS02001788 CONDUIT   1151.75     0  03:00      2.47    2.22    1.00
  YS02001915YS02001910 CONDUIT    594.75     0  03:01      0.76    0.30    1.00
  YS02001918YS02001915 CONDUIT    261.29     0  02:52      0.44    0.14    1.00
  YS02001923YS02001920 CONDUIT    258.13     0  02:52      0.75    0.12    1.00
  YS02001926YS02001923 CONDUIT    233.52     0  02:52      0.86    0.33    0.93
  YS02001929YS02001926 CONDUIT    200.19     0  03:01      0.92    0.10    0.82
  YS02001920YS02001918 CONDUIT    260.81     0  02:52      0.72    0.25    1.00
  YS02001629YS02163301 CONDUIT    208.52     0  02:33      0.27    0.26    1.00
  YS02001619YS02001622 CONDUIT    381.44     0  03:01      0.59    0.56    1.00
  YS02001622YS02001625 CONDUIT    380.71     0  03:01      0.48    0.20    1.00
  YS02001625YS02001629 CONDUIT    196.06     0  02:39      0.25    0.09    1.00
  YS02163301YS02001633 CONDUIT    211.07     0  02:33      0.27    0.20    1.00
  YS02163601YS02164001 CONDUIT    412.84     0  02:39      0.53    0.37    1.00
  YS02164001YS02001641 CONDUIT    413.29     0  02:39      0.53    0.56    1.00
  YS02001641YS02001644 CONDUIT    413.79     0  02:39      0.53    1.34    1.00
  YS02001647YS02001649 CONDUIT    681.68     0  03:01      0.87    0.36    1.00
  YS02006553YS02006556 CONDUIT    718.62     0  02:51      0.91    0.61    1.00
  YS02006556YS02006558 CONDUIT    718.80     0  02:51      0.92    0.57    1.00
  YSB6556YSB1171       CONDUIT     42.86     0  03:02      0.13    0.04    0.82
  YS02001907YS02006553 CONDUIT    718.89     0  02:51      0.80    0.85    1.00
  YS02006558YS02006561 CONDUIT   1151.07     0  03:01      4.07    2.54    1.00
  YS02001633YS02163601 CONDUIT    412.44     0  02:39      0.53    0.43    1.00
  YS02001644YS02001647 CONDUIT    681.70     0  03:01      0.87    0.40    1.00
  YS02001745YS02001748 CONDUIT    586.91     0  02:31      1.45    0.23    0.97
  YS02001748YS02001751 CONDUIT    442.12     0  03:01      1.03    0.22    1.00
  YS02001751YS02001754 CONDUIT    442.31     0  03:01      0.88    0.21    1.00
  YS02001754YS02001757 CONDUIT    442.46     0  03:01      0.56    0.18    1.00
  YS02001882YS02001884 CONDUIT     12.92     0  04:18      0.12    0.01    1.00
  YS02001884YS02001887 CONDUIT     21.22     0  02:40      0.08    0.03    1.00
  YS02001890YS02001895 CONDUIT    518.18     0  03:00      0.66    0.24    1.00
  YS02001895YS02001898 CONDUIT    517.99     0  03:07      0.66    0.90    1.00
  YS02001898YS02001901 CONDUIT    517.93     0  03:01      0.66    0.33    1.00
  YS02001901YS02001904 CONDUIT    517.88     0  02:59      0.66    0.80    1.00
  YS02001904YS02001907 CONDUIT    518.10     0  03:07      0.66    0.18    1.00
  YS02001887YS02001890 CONDUIT    681.04     0  03:01      0.87    1.17    1.00
  YS02001652YS02001649 CONDUIT    503.30     0  03:01      0.64    0.25    1.00
  YS02001655YS02001652 CONDUIT    502.68     0  03:01      0.94    0.24    1.00
  YS02001658YS02001655 CONDUIT    501.68     0  03:01      1.18    0.21    1.00
  YS02001661YS02001658 CONDUIT    603.03     0  02:29      1.52    0.24    1.00
  YS02001664YS02001661 CONDUIT    660.86     0  02:43      1.43    0.21    0.77
  YSB1154YSB6556       CONDUIT     43.28     0  03:01      0.18    0.08    0.73
  YSB1174YSB1171       CONDUIT     36.66     0  03:01      0.11    0.06    0.85
  YSB1171HS02004479    CONDUIT     75.46     0  03:02      0.54    0.05    0.68
  HS02004881HS02006253 CONDUIT    140.48     0  03:01      2.16    0.03    0.54
  YS02001793JiankangQianchi CONDUIT   1200.88     0  02:51     16.63    0.10    1.00
  YS02001757CaochengTiaoxuchi CONDUIT   1681.19     0  02:40      2.17    0.74    1.00
  WSF200WS02003060     CONDUIT    938.97     0  03:04      1.93    0.21    0.45
  1                    CONDUIT   1334.78     0  03:07      3.59    0.46    0.48
  CC-Pump-1            PUMP       200.00     0  03:00              1.00
  CC-Pump-2            PUMP       200.00     0  03:00              1.00
  JK-Pump-1            PUMP       300.00     0  02:30              1.00
  JK-Pump-2            PUMP       683.00     0  02:30              1.00
  XR-Pump-1            PUMP        95.00     0  00:00              1.00
  XR-Pump-2            PUMP        95.00     0  00:00              1.00
  XR-Pump-3            PUMP        95.00     0  00:00              1.00
  XR-Pump-4            PUMP        95.00     0  00:00              1.00
  
  
  ***************************
  Flow Classification Summary
  ***************************
  
  -------------------------------------------------------------------------------------
                      Adjusted    ---------- Fraction of Time in Flow Class ---------- 
                       /Actual         Up    Down  Sub   Sup   Up    Down  Norm  Inlet 
  Conduit               Length    Dry  Dry   Dry   Crit  Crit  Crit  Crit  Ltd   Ctrl  
  -------------------------------------------------------------------------------------
  WS02003066WSF200        1.00   0.01  0.05  0.00  0.00  0.94  0.00  0.00  0.66  0.00
  WS02006287WS02006284    1.00   0.04  0.02  0.00  0.50  0.44  0.00  0.00  0.65  0.00
  WS02006284WS02006280    1.00   0.06  0.00  0.00  0.00  0.00  0.00  0.94  0.00  0.00
  WS02006280WS02006229    1.00   0.06  0.00  0.00  0.01  0.03  0.00  0.90  0.01  0.00
  WS02006229WS02006228    1.00   0.00  0.00  0.00  1.00  0.00  0.00  0.00  0.00  0.00
  WS02006256WS02006235    1.00   0.02  0.00  0.00  0.98  0.00  0.00  0.00  0.00  0.00
  WS02006253WS02006251    1.00   0.02  0.03  0.00  0.94  0.00  0.02  0.00  0.00  0.00
  WS02006252WS02006251    1.00   0.26  0.00  0.00  0.09  0.00  0.65  0.00  0.00  0.00
  WS02006251WS02006249    1.00   0.00  0.00  0.00  1.00  0.00  0.00  0.00  0.53  0.00
  WS02006249WS02006248    1.00   0.00  0.01  0.00  0.78  0.00  0.21  0.00  0.00  0.00
  WS02006248WS02006247    1.00   0.01  0.00  0.00  0.97  0.00  0.00  0.02  0.30  0.00
  WS02006247WS02006245    1.00   0.01  0.00  0.00  0.96  0.00  0.00  0.03  0.00  0.00
  WS02006245WS02006243    1.00   0.01  0.00  0.00  0.93  0.00  0.00  0.06  0.02  0.00
  WS02006243WS02006242    1.00   0.01  0.00  0.00  0.97  0.00  0.00  0.01  0.29  0.00
  WS02006242WS02006240    1.00   0.02  0.01  0.00  0.97  0.00  0.01  0.00  0.00  0.00
  WS02006240WS02006239    1.00   0.02  0.00  0.00  0.88  0.00  0.00  0.09  0.02  0.00
  WS02006239WS02006238    1.00   0.02  0.00  0.00  0.98  0.00  0.00  0.00  0.12  0.00
  WS02006238WS02006235    1.00   0.02  0.00  0.00  0.98  0.00  0.00  0.00  0.00  0.00
  WS02006235WS02006234    1.00   0.02  0.00  0.00  0.92  0.00  0.06  0.00  0.00  0.00
  WS02006234WS02006232    1.00   0.02  0.00  0.00  0.98  0.00  0.00  0.00  0.04  0.00
  WS02006232WS02006231    1.00   0.02  0.00  0.00  0.97  0.00  0.00  0.00  0.00  0.00
  WS02006231WS02006230    1.00   0.02  0.00  0.00  0.54  0.00  0.43  0.00  0.00  0.00
  WS02006230WS02006229    1.00   0.00  0.00  0.00  0.99  0.00  0.00  0.01  0.00  0.00
  WS02006228WS02006109    1.00   0.00  0.00  0.00  1.00  0.00  0.00  0.00  0.00  0.00
  WS02006116WS02004401    1.00   0.03  0.00  0.00  0.97  0.00  0.00  0.00  0.00  0.00
  WS02006115WS02006116    1.00   0.03  0.00  0.00  0.96  0.00  0.00  0.00  0.00  0.00
  WS02006113WS02006111    1.00   0.02  0.00  0.00  0.06  0.92  0.00  0.00  0.21  0.00
  WS02006112WS02006115    1.00   0.02  0.01  0.00  0.96  0.00  0.00  0.00  0.00  0.00
  WS02006111WS02006112    1.00   0.02  0.00  0.00  0.97  0.00  0.00  0.00  0.82  0.00
  WS02006110WS02006113    1.00   0.00  0.02  0.00  0.98  0.00  0.00  0.00  0.00  0.00
  WS02006109WS02006110    1.00   0.00  0.00  0.00  0.99  0.00  0.00  0.00  0.00  0.00
  WS02004411WS02004412    1.00   0.05  0.00  0.00  0.95  0.00  0.00  0.00  0.00  0.00
  WS02004401WS02004402    1.00   0.03  0.00  0.00  0.96  0.00  0.00  0.00  0.00  0.00
  WS02004413WS02003067    1.00   0.05  0.00  0.00  0.00  0.00  0.95  0.00  0.00  0.00
  WS02004412WS02004413    1.00   0.05  0.00  0.00  0.95  0.00  0.00  0.00  0.00  0.00
  WS02004410WS02004411    1.00   0.05  0.00  0.00  0.95  0.00  0.00  0.00  0.00  0.00
  WS02004409WS02004410    1.00   0.05  0.00  0.00  0.95  0.00  0.00  0.00  0.00  0.00
  WS02004407WS02004409    1.00   0.05  0.00  0.00  0.95  0.00  0.00  0.00  0.89  0.00
  WS02004406WS02004407    1.00   0.00  0.04  0.00  0.95  0.00  0.00  0.00  0.00  0.00
  WS02004405WS02004406    1.00   0.00  0.00  0.00  1.00  0.00  0.00  0.00  0.04  0.00
  WS02004404WS02004405    1.00   0.00  0.00  0.00  1.00  0.00  0.00  0.00  0.00  0.00
  WS02004403WS02004404    1.00   0.00  0.04  0.00  0.96  0.00  0.00  0.00  0.00  0.00
  WS02004402WS02004403    1.00   0.04  0.00  0.00  0.96  0.00  0.00  0.00  0.00  0.00
  WS02004139WS02001211    1.00   0.00  0.00  0.00  1.00  0.00  0.00  0.00  0.00  0.00
  WS02004138WS02004139    1.00   0.00  0.00  0.00  1.00  0.00  0.00  0.00  1.00  0.00
  WS02003067WS02003066    1.00   0.05  0.00  0.00  0.94  0.00  0.00  0.00  0.00  0.00
  WS02001213WS02003059    1.00   0.00  0.00  0.00  1.00  0.00  0.00  0.00  0.00  0.00
  WS02001212WS02001213    1.00   0.00  0.00  0.00  0.88  0.00  0.11  0.00  0.00  0.00
  WS02001211WS02001212    1.00   0.00  0.00  0.00  1.00  0.00  0.00  0.00  0.00  0.00
  WS02003072WS02003073    1.00   0.00  0.00  0.00  0.00  0.00  0.00  1.00  0.00  0.00
  WS02003069WS02003072    1.00   0.00  0.00  0.00  1.00  0.00  0.00  0.00  0.12  0.00
  WS02003060WS02003069    1.00   0.00  0.00  0.00  1.00  0.00  0.00  0.00  0.07  0.00
  WS02003059WS02003060    1.00   0.00  0.00  0.00  1.00  0.00  0.00  0.00  0.00  0.00
  HS02004901HS02004770    1.00   0.05  0.00  0.00  0.95  0.00  0.00  0.00  0.00  0.00
  HS02004876HS02004881    1.00   0.01  0.00  0.00  0.89  0.11  0.00  0.00  0.00  0.00
  HS02004870HS02004876    1.00   0.00  0.00  0.00  1.00  0.00  0.00  0.00  0.95  0.00
  HS02004842HS02004848    1.00   0.00  0.05  0.00  0.95  0.00  0.00  0.00  0.54  0.00
  HS02004837HS02004842    1.00   0.00  0.00  0.00  1.00  0.00  0.00  0.00  0.11  0.00
  HS02004830HS02004837    1.00   0.00  0.00  0.00  1.00  0.00  0.00  0.00  0.99  0.00
  HS02004824HS02004830    1.00   0.00  0.00  0.00  1.00  0.00  0.00  0.00  0.01  0.00
  HS02004817HS02004824    1.00   0.00  0.00  0.00  1.00  0.00  0.00  0.00  0.97  0.00
  HS02004770HS02004777    1.00   0.00  0.05  0.00  0.95  0.00  0.00  0.00  0.03  0.00
  HS02004799HS02004480    1.00   0.00  0.01  0.00  0.94  0.00  0.05  0.00  0.00  0.00
  HS02004792HS02004799    1.00   0.00  0.00  0.00  1.00  0.00  0.00  0.00  0.98  0.00
  HS02004788HS02004792    1.00   0.00  0.00  0.00  1.00  0.00  0.00  0.00  0.98  0.00
  HS02004785HS02004788    1.00   0.00  0.00  0.00  1.00  0.00  0.00  0.00  0.00  0.00
  HS02004777HS02004785    1.00   0.00  0.00  0.00  1.00  0.00  0.00  0.00  0.12  0.00
  HS02004480HS02004478    1.00   0.06  0.00  0.00  0.60  0.00  0.00  0.35  0.00  0.00
  HS02004479HS02004480    1.00   0.01  0.00  0.00  0.99  0.00  0.00  0.00  0.12  0.00
  HS02004862HS02004870    1.00   0.00  0.00  0.00  1.00  0.00  0.00  0.00  0.04  0.00
  HS02004848HS02004852    1.00   0.05  0.00  0.00  0.95  0.00  0.00  0.00  0.64  0.00
  HS02004856HS02004862    1.00   0.00  0.07  0.00  0.93  0.00  0.00  0.00  0.83  0.00
  HS02004852HS02004856    1.00   0.05  0.00  0.00  0.94  0.00  0.00  0.00  0.81  0.00
  HS02004802HS02004478    1.00   0.06  0.00  0.00  0.94  0.00  0.00  0.00  0.02  0.00
  HS02004478WS02006287    1.00   0.07  0.00  0.00  0.67  0.26  0.00  0.00  0.65  0.00
  HS02004817HS02004807    1.00   0.00  0.05  0.00  0.95  0.00  0.00  0.00  0.01  0.00
  HS02004807HS02004802    1.00   0.05  0.00  0.00  0.94  0.00  0.00  0.01  0.00  0.00
  YS02001759YS02001757    1.00   0.00  0.00  0.00  1.00  0.00  0.00  0.00  0.16  0.00
  YS02001762YS02001759    1.00   0.00  0.00  0.00  1.00  0.00  0.00  0.00  0.03  0.00
  YS02001765YS02001762    1.00   0.00  0.00  0.00  1.00  0.00  0.00  0.00  0.14  0.00
  YS02001770YS02001767    1.00   0.00  0.00  0.00  1.00  0.00  0.00  0.00  0.00  0.00
  YS02001774YS02001770    1.00   0.00  0.06  0.00  0.94  0.00  0.00  0.00  0.03  0.00
  YS02001779YS02001774    1.00   0.00  0.00  0.00  1.00  0.00  0.00  0.00  0.19  0.00
  YS02001649YS02001757    1.00   0.00  0.00  0.00  1.00  0.00  0.00  0.00  0.16  0.00
  YS02001767YS02001765    1.00   0.00  0.00  0.00  1.00  0.00  0.00  0.00  0.00  0.00
  YS02006561YS02001783    1.00   0.08  0.00  0.00  0.42  0.50  0.00  0.00  0.47  0.00
  YS02001783YS02001784    1.00   0.00  0.08  0.00  0.92  0.00  0.00  0.00  0.00  0.00
  YS02001784YS02001785    1.00   0.00  0.00  0.00  1.00  0.00  0.00  0.00  0.18  0.00
  YS02001788YS02001790    1.00   0.00  0.00  0.00  0.41  0.59  0.00  0.00  0.34  0.00
  YS02001790YS02001791    1.00   0.00  0.00  0.00  0.34  0.66  0.00  0.00  0.42  0.00
  YS02001791YS02001793    1.00   0.00  0.00  0.00  0.36  0.63  0.00  0.00  0.03  0.00
  YS02001910YS02001907    1.00   0.00  0.00  0.00  0.99  0.00  0.00  0.01  0.12  0.00
  YS02001786YS02001788    1.00   0.00  0.00  0.00  0.45  0.55  0.00  0.00  0.00  0.00
  YS02001915YS02001910    1.00   0.00  0.00  0.00  0.99  0.01  0.00  0.00  0.16  0.00
  YS02001918YS02001915    1.00   0.00  0.00  0.00  0.99  0.01  0.00  0.00  0.53  0.00
  YS02001923YS02001920    1.00   0.00  0.00  0.00  1.00  0.00  0.00  0.00  0.82  0.00
  YS02001926YS02001923    1.00   0.00  0.03  0.00  0.19  0.00  0.79  0.00  0.00  0.00
  YS02001929YS02001926    1.00   0.00  0.05  0.00  0.95  0.00  0.00  0.00  0.75  0.00
  YS02001920YS02001918    1.00   0.00  0.00  0.00  1.00  0.00  0.00  0.00  0.00  0.00
  YS02001629YS02163301    1.00   0.06  0.00  0.00  0.93  0.00  0.00  0.00  0.00  0.00
  YS02001619YS02001622    1.00   0.05  0.00  0.00  0.95  0.00  0.00  0.00  0.00  0.00
  YS02001622YS02001625    1.00   0.05  0.00  0.00  0.95  0.00  0.00  0.00  0.05  0.00
  YS02001625YS02001629    1.00   0.05  0.02  0.00  0.90  0.00  0.03  0.00  0.00  0.00
  YS02163301YS02001633    1.00   0.00  0.06  0.00  0.94  0.00  0.00  0.00  0.00  0.00
  YS02163601YS02164001    1.00   0.00  0.03  0.00  0.97  0.00  0.00  0.00  0.00  0.00
  YS02164001YS02001641    1.00   0.00  0.03  0.00  0.97  0.00  0.00  0.00  0.06  0.00
  YS02001641YS02001644    1.00   0.00  0.00  0.00  1.00  0.00  0.00  0.00  0.00  0.00
  YS02001647YS02001649    1.00   0.00  0.07  0.00  0.93  0.00  0.00  0.00  0.01  0.00
  YS02006553YS02006556    1.00   0.00  0.00  0.00  1.00  0.00  0.00  0.00  0.03  0.00
  YS02006556YS02006558    1.00   0.00  0.00  0.00  1.00  0.00  0.00  0.00  0.00  0.00
  YSB6556YSB1171          1.00   0.01  0.04  0.00  0.95  0.00  0.00  0.00  0.00  0.00
  YS02001907YS02006553    1.00   0.00  0.01  0.00  0.99  0.00  0.00  0.00  0.00  0.00
  YS02006558YS02006561    1.00   0.08  0.00  0.00  0.17  0.75  0.00  0.00  0.48  0.00
  YS02001633YS02163601    1.00   0.00  0.00  0.00  1.00  0.00  0.00  0.00  0.15  0.00
  YS02001644YS02001647    1.00   0.00  0.07  0.00  0.93  0.00  0.00  0.00  0.00  0.00
  YS02001745YS02001748    1.00   0.00  0.00  0.00  0.86  0.01  0.00  0.13  0.04  0.00
  YS02001748YS02001751    1.00   0.00  0.00  0.00  0.95  0.05  0.00  0.00  0.15  0.00
  YS02001751YS02001754    1.00   0.00  0.00  0.00  0.91  0.00  0.00  0.08  0.02  0.00
  YS02001754YS02001757    1.00   0.00  0.00  0.00  1.00  0.00  0.00  0.00  0.18  0.00
  YS02001882YS02001884    1.00   0.06  0.00  0.00  0.94  0.00  0.00  0.00  0.00  0.00
  YS02001884YS02001887    1.00   0.02  0.03  0.00  0.95  0.00  0.00  0.00  0.00  0.00
  YS02001890YS02001895    1.00   0.00  0.06  0.00  0.93  0.00  0.00  0.00  0.00  0.00
  YS02001895YS02001898    1.00   0.07  0.00  0.00  0.92  0.00  0.02  0.00  0.00  0.00
  YS02001898YS02001901    1.00   0.07  0.00  0.00  0.93  0.00  0.00  0.00  0.01  0.00
  YS02001901YS02001904    1.00   0.07  0.00  0.00  0.93  0.00  0.00  0.00  0.00  0.00
  YS02001904YS02001907    1.00   0.00  0.07  0.00  0.93  0.00  0.00  0.00  0.00  0.00
  YS02001887YS02001890    1.00   0.00  0.00  0.00  0.99  0.00  0.01  0.00  0.00  0.00
  YS02001652YS02001649    1.00   0.00  0.00  0.00  1.00  0.00  0.00  0.00  0.16  0.00
  YS02001655YS02001652    1.00   0.00  0.00  0.00  0.92  0.00  0.00  0.08  0.02  0.00
  YS02001658YS02001655    1.00   0.00  0.06  0.00  0.90  0.04  0.00  0.00  0.10  0.00
  YS02001661YS02001658    1.00   0.06  0.00  0.00  0.86  0.08  0.00  0.00  0.11  0.00
  YS02001664YS02001661    1.00   0.05  0.00  0.00  0.88  0.06  0.00  0.00  0.20  0.00
  YSB1154YSB6556          1.00   0.05  0.00  0.00  0.95  0.00  0.00  0.00  0.02  0.00
  YSB1174YSB1171          1.00   0.02  0.02  0.00  0.96  0.00  0.00  0.00  0.00  0.00
  YSB1171HS02004479       1.00   0.01  0.00  0.00  0.98  0.00  0.00  0.00  0.10  0.00
  HS02004881HS02006253    1.00   0.02  0.00  0.00  0.32  0.04  0.00  0.62  0.21  0.00
  YS02001793JiankangQianchi    1.00   0.00  0.00  0.00  0.67  0.33  0.00  0.00  0.41  0.00
  YS02001757CaochengTiaoxuchi    1.00   0.00  0.10  0.00  0.90  0.00  0.00  0.00  0.00  0.00
  WSF200WS02003060        1.00   0.00  0.01  0.00  0.97  0.02  0.00  0.00  0.61  0.00
  1                       1.00   0.00  0.00  0.00  0.00  1.00  0.00  0.00  0.44  0.00
  
  
  *************************
  Conduit Surcharge Summary
  *************************
  
  ----------------------------------------------------------------------------
                                                           Hours        Hours 
                         --------- Hours Full --------   Above Full   Capacity
  Conduit                Both Ends  Upstream  Dnstream   Normal Flow   Limited
  ----------------------------------------------------------------------------
  WS02006229WS02006228        2.10      2.19      2.10      2.98         2.10
  WS02006256WS02006235        5.02      5.02      6.45      4.45         0.01
  WS02006253WS02006251        0.74      0.74      0.75      0.01         0.01
  WS02006252WS02006251        0.64      0.64      0.74      0.60         0.01
  WS02006251WS02006249        0.74      0.74      0.77      0.49         0.46
  WS02006249WS02006248        0.76      0.76      0.77      0.86         0.01
  WS02006248WS02006247        0.77      0.77      0.82      0.01         0.01
  WS02006247WS02006245        0.82      0.83      0.82      1.34         0.69
  WS02006245WS02006243        0.83      0.83      0.89      0.01         0.05
  WS02006243WS02006242        0.91      0.91      1.10      0.01         0.01
  WS02006242WS02006240        1.08      1.08      1.16      0.36         0.01
  WS02006240WS02006239        1.10      1.10      1.17      0.16         0.11
  WS02006239WS02006238        1.30      1.30      1.52      0.17         0.15
  WS02006238WS02006235        1.51      1.51      1.62      0.01         0.02
  WS02006235WS02006234        1.23      1.23      1.46      4.89         0.01
  WS02006234WS02006232        1.30      1.30      1.75      0.20         0.21
  WS02006232WS02006231        1.10      1.10      1.75      0.23         0.01
  WS02006231WS02006230        0.96      0.96      1.13      5.08         0.01
  WS02006230WS02006229        2.58      2.76      2.58      5.33         2.58
  WS02006228WS02006109        2.14      2.39      2.14      4.24         2.14
  WS02006116WS02004401        0.54      0.54      0.55      0.47         0.47
[...]
  YS02001770YS02001767        5.69      5.69      5.70      0.20         0.54
  YS02001774YS02001770        5.68      5.68      5.74      0.01         0.01
  YS02001779YS02001774        5.56      5.56      5.74      0.01         0.01
  YS02001649YS02001757        5.75      5.75      5.86      0.01         0.01
  YS02001767YS02001765        5.70      5.70      5.72      0.01         0.01
  YS02006561YS02001783        0.86      0.86      1.31      0.01         0.01
  YS02001783YS02001784        1.26      1.31      1.27      1.58         1.18
  YS02001784YS02001785        1.09      1.27      1.09      2.50         1.08
  YS02001788YS02001790        0.78      0.78      1.92      0.01         0.01
  YS02001790YS02001791        1.92      1.92      2.01      1.12         0.79
  YS02001791YS02001793        2.00      2.00      2.47      0.01         0.01
  YS02001910YS02001907        1.24      1.24      1.93      0.01         0.01
  YS02001786YS02001788        0.78      1.09      0.78      2.05         0.78
  YS02001915YS02001910        1.05      1.05      1.24      0.01         0.01
  YS02001918YS02001915        0.86      0.86      1.05      0.01         0.01
  YS02001923YS02001920        0.71      0.71      0.89      0.01         0.01
  YS02001920YS02001918        0.86      0.86      0.89      0.01         0.01
  YS02001629YS02163301        5.67      5.67      5.69      0.01         0.01
  YS02001619YS02001622        5.37      5.37      5.41      0.01         0.01
  YS02001622YS02001625        5.41      5.41      5.64      0.01         0.01
  YS02001625YS02001629        5.38      5.38      5.64      0.01         0.01
  YS02163301YS02001633        5.69      5.69      5.72      0.01         0.01
  YS02163601YS02164001        5.72      5.72      5.75      0.01         0.01
  YS02164001YS02001641        5.72      5.72      5.73      0.01         0.03
  YS02001641YS02001644        5.73      5.73      5.73      1.72         1.88
  YS02001647YS02001649        5.62      5.62      5.75      0.01         0.01
  YS02006553YS02006556        1.47      1.47      2.01      0.01         0.01
  YS02006556YS02006558        1.66      1.66      2.09      0.01         0.01
  YSB6556YSB1171              0.01      0.01      0.07      0.01         0.01
  YS02001907YS02006553        2.55      2.55      2.75      0.01         0.01
  YS02006558YS02006561        0.98      1.43      0.98      2.34         0.98
  YS02001633YS02163601        5.71      5.71      5.75      0.01         0.01
  YS02001644YS02001647        5.62      5.62      5.73      0.01         0.01
  YS02001745YS02001748        0.01      0.01      5.22      0.01         0.01
  YS02001748YS02001751        5.27      5.27      5.36      0.01         0.01
  YS02001751YS02001754        5.36      5.36      5.58      0.01         0.01
  YS02001754YS02001757        5.62      5.62      5.86      0.01         0.01
  YS02001882YS02001884        1.07      1.07      1.09      0.01         0.01
  YS02001884YS02001887        1.14      1.14      1.17      0.01         0.01
  YS02001890YS02001895        1.04      1.04      1.26      0.01         0.01
  YS02001895YS02001898        1.02      1.02      1.04      0.01         0.01
  YS02001898YS02001901        1.04      1.04      1.13      0.01         0.01
  YS02001901YS02001904        1.11      1.11      1.13      0.01         0.01
  YS02001904YS02001907        1.11      1.11      2.03      0.01         0.01
  YS02001887YS02001890        1.20      1.20      1.23      0.16         0.01
  YS02001652YS02001649        5.63      5.63      5.75      0.01         0.01
  YS02001655YS02001652        5.39      5.39      5.61      0.01         0.01
  YS02001658YS02001655        5.25      5.25      5.39      0.01         0.01
  YS02001661YS02001658        0.05      0.05      5.25      0.01         0.01
  YS02001664YS02001661        0.01      0.01      0.99      0.01         0.01
  HS02004881HS02006253        0.01      0.01      0.59      0.01         0.01
  YS02001793JiankangQianchi        2.35      2.35      4.80      0.01         0.01
  YS02001757CaochengTiaoxuchi        5.11      5.11      5.86      0.01         0.01
  
  
  ***************
  Pumping Summary
  ***************
  
  ---------------------------------------------------------------------------------------------------------
                                                  Min       Avg       Max     Total     Power    % Time Off
                        Percent   Number of      Flow      Flow      Flow    Volume     Usage    Pump Curve
  Pump                 Utilized   Start-Ups       LPS       LPS       LPS  10^6 ltr     Kw-hr    Low   High
  ---------------------------------------------------------------------------------------------------------
  CC-Pump-1               27.66           5      0.00    131.48    200.00     1.020      0.97    0.0    0.0
  CC-Pump-2               12.77           2      0.00    119.20    200.00     0.480      0.67    0.0    0.0
  JK-Pump-1               59.56           5      0.00    230.83    300.00     3.776     56.86    0.0    0.0
  JK-Pump-2               55.31           4      0.00    447.66    683.00     6.949     93.93    0.0   95.5
  XR-Pump-1              100.00           1      0.00     95.00     95.00     2.679     27.63    0.0    0.0
  XR-Pump-2               99.99           2      0.00     90.54     95.00     2.508     24.00    0.0    0.0
  XR-Pump-3               93.59           3      0.00     90.15     95.00     2.337     20.27    0.0    0.0
  XR-Pump-4               93.59           3      0.00     90.15     95.00     2.337     20.27    0.0    0.0
  
  
  ***************************
  Link Pollutant Load Summary
  ***************************
  
  ------------------------------------------------------------------------------------------
                                 COD            SS            TN            TP         NH4-N
  Link                            kg            kg            kg            kg            kg
  ------------------------------------------------------------------------------------------
  WS02003066WSF200           689.421      1296.986        18.733         1.686         9.962
  WS02006287WS02006284       319.485       608.135        10.314         1.015         5.678
  WS02006284WS02006280       319.967       608.927        10.359         1.020         5.707
  WS02006280WS02006229       319.906       608.804        10.356         1.020         5.705
  WS02006229WS02006228       676.279      1272.706        18.078         1.609         9.575
  WS02006256WS02006235       222.293       411.752         4.869         0.378         2.459
  WS02006253WS02006251        57.559       113.929         1.240         0.091         0.611
  WS02006252WS02006251       137.276       252.760         2.895         0.215         1.433
  WS02006251WS02006249       190.565       358.918         4.050         0.300         2.003
  WS02006249WS02006248       146.256       274.463         3.132         0.233         1.552
  WS02006248WS02006247       145.848       273.671         3.133         0.234         1.554
  WS02006247WS02006245       145.409       272.806         3.129         0.234         1.553
  WS02006245WS02006243       144.859       271.761         3.123         0.234         1.551
  WS02006243WS02006242       144.714       271.308         3.133         0.235         1.558
  WS02006242WS02006240       145.106       271.779         3.141         0.235         1.561
  WS02006240WS02006239       146.349       273.697         3.191         0.240         1.590
  WS02006239WS02006238       148.126       276.232         3.276         0.249         1.639
  WS02006238WS02006235       149.393       278.129         3.327         0.255         1.668
  WS02006235WS02006234       358.778       668.172         7.790         0.595         3.906
  WS02006234WS02006232       358.530       667.648         7.790         0.596         3.907
  WS02006232WS02006231       357.824       666.392         7.772         0.594         3.897
  WS02006231WS02006230       357.466       665.761         7.764         0.594         3.894
  WS02006230WS02006229       357.040       665.037         7.749         0.592         3.885
  WS02006228WS02006109       675.597      1271.473        18.058         1.608         9.563
  WS02006116WS02004401       691.944      1301.151        18.894         1.705        10.060
  WS02006115WS02006116       692.392      1301.892        18.912         1.707        10.070
  WS02006113WS02006111       681.962      1281.388        18.768         1.698        10.011
  WS02006112WS02006115       693.028      1302.903        18.952         1.711        10.094
  WS02006111WS02006112       681.784      1281.110        18.762         1.697        10.007
  WS02006110WS02006113       682.436      1282.198        18.793         1.701        10.026
  WS02006109WS02006110       683.438      1283.882        18.857         1.708        10.064
  WS02004411WS02004412       690.567      1298.797        18.833         1.699        10.024
  WS02004401WS02004402       691.438      1300.342        18.862         1.701        10.040
  WS02004413WS02003067       689.666      1297.471        18.743         1.687         9.968
  WS02004412WS02004413       690.303      1298.396        18.808         1.695        10.009
  WS02004410WS02004411       690.787      1299.168        18.850         1.701        10.035
  WS02004409WS02004410       691.045      1299.582        18.873         1.703        10.049
  WS02004407WS02004409       691.154      1299.782        18.880         1.704        10.053
  WS02004406WS02004407       691.116      1299.780        18.871         1.703        10.048
  WS02004405WS02004406       691.915      1301.078        18.940         1.712        10.090
  WS02004404WS02004405       691.642      1300.658        18.908         1.708        10.070
  WS02004403WS02004404       690.743      1299.231        18.816         1.696        10.012
  WS02004402WS02004403       691.098      1299.784        18.843         1.699        10.029
  WS02004139WS02001211      1376.936      2286.370       111.757        13.642        68.888
  WS02004138WS02004139      1383.095      2296.660       112.232        13.699        69.179
  WS02003067WS02003066       689.522      1297.157        18.740         1.687         9.967
  WS02001213WS02003059      1410.446      2339.042       115.226        14.079        71.067
  WS02001212WS02001213      1419.316      2353.749       115.943        14.167        71.509
  WS02001211WS02001212      1421.389      2357.130       116.122        14.189        71.620
  WS02003072WS02003073      2201.670      3798.200       143.941        17.017        87.278
  WS02003069WS02003072      2206.135      3805.333       144.353        17.068        87.534
  WS02003060WS02003069      2208.282      3808.953       144.503        17.086        87.625
  WS02003059WS02003060      1407.467      2333.994       115.016        14.054        70.939
  HS02004901HS02004770        13.094        25.474         0.248         0.019         0.116
  HS02004876HS02004881        45.516        90.351         0.999         0.073         0.491
  HS02004870HS02004876        34.383        68.107         0.798         0.060         0.395
  HS02004842HS02004848         6.457        12.343         0.134         0.009         0.062
  HS02004837HS02004842        11.057        19.637         0.603         0.068         0.356
  HS02004830HS02004837        70.297       122.725         4.643         0.552         2.827
  HS02004824HS02004830        71.069       123.982         4.715         0.561         2.871
  HS02004817HS02004824        97.163       176.407         5.254         0.596         3.134
  HS02004770HS02004777        49.663        97.715         1.021         0.069         0.472
  HS02004799HS02004480       162.330       310.850         4.263         0.379         2.209
  HS02004792HS02004799       147.278       280.133         4.028         0.367         2.105
  HS02004788HS02004792        82.820       157.693         2.666         0.255         1.440
  HS02004785HS02004788        51.123       100.054         1.172         0.089         0.567
  HS02004777HS02004785        50.448        98.947         1.112         0.081         0.530
  HS02004480HS02004478       204.820       395.190         4.971         0.429         2.543
  HS02004479HS02004480        46.123        90.107         1.036         0.091         0.538
  HS02004862HS02004870        25.800        50.341         0.628         0.050         0.314
  HS02004848HS02004852        10.252        19.885         0.210         0.014         0.097
  HS02004856HS02004862        17.525        34.751         0.350         0.023         0.164
  HS02004852HS02004856        10.256        19.890         0.210         0.014         0.097
  HS02004802HS02004478       115.338       214.048         5.397         0.592         3.169
  HS02004478WS02006287       319.693       608.496        10.330         1.017         5.688
  HS02004817HS02004807        95.858       174.315         5.130         0.581         3.057
  HS02004807HS02004802       115.595       214.450         5.429         0.596         3.189
  YS02001759YS02001757       320.023       590.261         6.346         0.443         3.100
  YS02001762YS02001759       162.116       297.181         3.397         0.240         1.679
  YS02001765YS02001762       163.547       300.691         3.441         0.244         1.703
  YS02001770YS02001767       167.635       310.832         3.376         0.228         1.645
  YS02001774YS02001770       295.553       569.941         5.736         0.382         2.775
  YS02001779YS02001774       295.016       568.909         5.821         0.395         2.835
  YS02001649YS02001757       395.132       711.318         8.060         0.552         3.893
  YS02001767YS02001765       165.654       305.506         3.491         0.248         1.728
  YS02006561YS02001783      1050.178      1949.612        21.950         1.637        10.917
  YS02001783YS02001784      1050.079      1949.463        21.946         1.636        10.915
  YS02001784YS02001785      1057.425      1961.243        22.659         1.726        11.361
  YS02001788YS02001790      1058.033      1962.253        22.731         1.735        11.407
  YS02001790YS02001791      1059.154      1964.137        22.832         1.748        11.470
  YS02001791YS02001793      1059.083      1964.002        22.828         1.747        11.467
  YS02001910YS02001907       391.264       721.679         9.385         0.718         4.808
  YS02001786YS02001788      1057.666      1961.683        22.687         1.729        11.379
  YS02001915YS02001910       391.286       721.707         9.336         0.711         4.776
  YS02001918YS02001915       186.188       328.454         5.123         0.466         2.758
  YS02001923YS02001920       165.536       295.029         3.164         0.222         1.535
  YS02001926YS02001923       164.483       293.258         3.098         0.214         1.495
  YS02001929YS02001926       164.245       292.862         3.066         0.210         1.475
  YS02001920YS02001918       185.316       326.667         5.076         0.461         2.731
  YS02001629YS02163301        96.051       169.838         2.027         0.131         0.946
  YS02001619YS02001622       175.889       321.162         3.602         0.236         1.684
  YS02001622YS02001625       174.694       319.261         3.573         0.234         1.671
  YS02001625YS02001629        97.145       171.629         2.052         0.132         0.957
  YS02163301YS02001633        96.392       170.669         2.030         0.132         0.948
  YS02163601YS02164001       405.747       733.201         7.899         0.562         3.784
  YS02164001YS02001641       405.212       732.293         7.879         0.560         3.772
  YS02001641YS02001644       405.273       732.317         7.874         0.560         3.770
  YS02001647YS02001649       508.796       927.930        10.266         0.710         4.923
  YS02006553YS02006556       716.181      1319.898        15.323         1.171         7.704
  YS02006556YS02006558       716.154      1319.835        15.295         1.167         7.685
  YSB6556YSB1171              26.521        51.966         0.537         0.045         0.272
  YS02001907YS02006553       716.265      1320.079        15.331         1.172         7.709
  YS02006558YS02006561      1050.168      1949.592        21.949         1.637        10.917
  YS02001633YS02163601       406.476       734.335         7.880         0.558         3.768
  YS02001644YS02001647       514.189       937.946        10.345         0.715         4.959
  YS02001745YS02001748       251.185       469.328         5.606         0.394         2.800
  YS02001748YS02001751       248.484       464.338         5.603         0.398         2.808
  YS02001751YS02001754       247.566       462.821         5.592         0.398         2.805
  YS02001754YS02001757       248.314       463.938         5.756         0.421         2.911
  YS02001882YS02001884         3.122         5.401         0.063         0.005         0.032
  YS02001884YS02001887         6.652        11.777         0.131         0.010         0.065
  YS02001890YS02001895       451.130       846.763         8.305         0.625         4.051
  YS02001895YS02001898       451.018       846.647         8.299         0.624         4.048
  YS02001898YS02001901       450.866       846.390         8.296         0.624         4.046
  YS02001901YS02001904       450.752       846.251         8.302         0.625         4.051
  YS02001904YS02001907       450.999       846.636         8.356         0.632         4.085
  YS02001887YS02001890       468.353       880.919         8.647         0.653         4.224
  YS02001652YS02001649       210.598       390.024         4.254         0.306         1.993
  YS02001655YS02001652       211.460       391.398         4.276         0.307         2.004
  YS02001658YS02001655       211.245       391.032         4.196         0.296         1.950
  YS02001661YS02001658       215.018       397.690         4.274         0.301         1.986
  YS02001664YS02001661       220.604       406.535         4.406         0.310         2.046
  YSB1154YSB6556              26.084        51.269         0.486         0.038         0.239
  YSB1174YSB1171              18.020        35.560         0.361         0.029         0.180
  YSB1171HS02004479           46.089        90.054         1.039         0.092         0.540
  HS02004881HS02006253        51.617       102.853         1.111         0.081         0.545
  YS02001793JiankangQianchi      1058.637      1963.203        22.780         1.741        11.437
  YS02001757CaochengTiaoxuchi       509.053       935.803        10.630         0.774         5.238
  WSF200WS02003060           689.327      1296.775        18.732         1.686         9.962
  1                         2207.331      3806.356       144.704        17.115        87.764
  CC-Pump-1                   93.225       171.859         1.946         0.143         0.961
  CC-Pump-2                   43.655        80.276         0.915         0.068         0.452
  JK-Pump-1                  273.481       514.332         5.682         0.428         2.831
  JK-Pump-2                  622.274      1170.397        12.907         0.971         6.426
  XR-Pump-1                  391.471       647.360        32.408         3.968        20.011
  XR-Pump-2                  357.449       592.881        29.171         3.564        17.990
  XR-Pump-3                  318.899       531.204        25.475         3.102        15.681
  XR-Pump-4                  318.899       531.204        25.475         3.102        15.681
  

  Analysis begun on:  Fri Jul 16 00:14:44 2021
  Analysis ended on:  Fri Jul 16 00:14:46 2021
  Total elapsed time: 00:00:02