
  EPA STORM WATER MANAGEMENT MODEL - VERSION 5.1 (Build 5.3.0.dev0)
  --------------------------------------------------------------

  WARNING 04: minimum elevation drop used for Conduit WS02004404WS02004405
  WARNING 03: negative offset ignored for Link YS02001904YS02001907
  
  *********************************************************
  NOTE: The summary statistics displayed in this report are
  based on results found at every computational time step,  
  not just on results from each reporting time step.
  *********************************************************
  
  ****************
  Analysis Options
  ****************
  Flow Units ............... LPS
  Process Models:
    Rainfall/Runoff ........ YES
    RDII ................... NO
    Snowmelt ............... NO
    Groundwater ............ NO
    Flow Routing ........... YES
    Ponding Allowed ........ NO
    Water Quality .......... YES
  Infiltration Method ...... HORTON
  Flow Routing Method ...... DYNWAVE
  Surcharge Method ......... EXTRAN
  Starting Date ............ 08/28/2015 08:00:00
  Ending Date .............. 08/28/2015 15:50:00
  Antecedent Dry Days ...... 8.0
  Report Time Step ......... 00:01:00
  Wet Time Step ............ 00:01:00
  Dry Time Step ............ 00:01:00
  Routing Time Step ........ 5.00 sec
  Variable Time Step ....... YES
  Maximum Trials ........... 8
  Number of Threads ........ 4
  Head Tolerance ........... 0.001500 m
  
  
  **************************        Volume         Depth
  Runoff Quantity Continuity     hectare-m            mm
  **************************     ---------       -------
  Total Precipitation ......         6.144        13.452
  Evaporation Loss .........         0.000         0.000
  Infiltration Loss ........         1.064         2.328
  Surface Runoff ...........         4.147         9.079
  Final Storage ............         0.935         2.047
  Continuity Error (%) .....        -0.020
  
  
  **************************           COD            SS            TN            TP         NH4-N
  Runoff Quality Continuity             kg            kg            kg            kg            kg
  **************************    ----------    ----------    ----------    ----------    ----------
  Initial Buildup ..........     41378.656     70582.865      1804.177       168.684      1032.807
  Surface Buildup ..........        21.799        40.924         2.400         0.218         1.395
  Wet Deposition ...........         0.000         0.000         0.000         0.000         0.000
  Sweeping Removal .........         0.000         0.000         0.000         0.000         0.000
  Infiltration Loss ........        97.311       184.943         1.849         0.130         0.881
  BMP Removal ..............         0.000         0.000         0.000         0.000         0.000
  Surface Runoff ...........      3769.819      7064.251        72.781         4.964        34.599
  Remaining Buildup ........     37531.916     63371.884      1731.919       163.806       998.709
  Continuity Error (%) .....         0.003         0.004         0.002         0.001         0.001
  
  
  **************************        Volume        Volume
  Flow Routing Continuity        hectare-m      10^6 ltr
  **************************     ---------     ---------
  Dry Weather Inflow .......         0.616         6.165
  Wet Weather Inflow .......         4.145        41.452
  Groundwater Inflow .......         0.000         0.000
  RDII Inflow ..............         0.000         0.000
  External Inflow ..........         0.102         1.024
  External Outflow .........         1.873        18.733
  Flooding Loss ............         2.533        25.326
  Evaporation Loss .........         0.000         0.000
  Exfiltration Loss ........         0.000         0.000
  Initial Stored Volume ....         0.076         0.761
  Final Stored Volume ......         0.645         6.450
  Continuity Error (%) .....        -2.244
  
  
  **************************           COD            SS            TN            TP         NH4-N
  Quality Routing Continuity            kg            kg            kg            kg            kg
  **************************    ----------    ----------    ----------    ----------    ----------
  Dry Weather Inflow .......      1541.201      2465.922       147.955        18.494        92.472
  Wet Weather Inflow .......      3769.057      7062.971        72.764         4.963        34.592
  Groundwater Inflow .......         0.000         0.000         0.000         0.000         0.000
  RDII Inflow ..............         0.000         0.000         0.000         0.000         0.000
  External Inflow ..........       183.418       293.469        17.608         2.201        11.005
  External Outflow .........      2273.278      3926.703       145.839        17.180        88.280
  Flooding Loss ............      2538.148      4719.489        64.941         5.634        34.078
  Exfiltration Loss ........         0.000         0.000         0.000         0.000         0.000
  Mass Reacted .............         0.000         0.000         0.000         0.000         0.000
  Initial Stored Mass ......         0.000         0.000         0.000         0.000         0.000
  Final Stored Mass ........       572.089       990.053        24.833         2.635        14.338
  Continuity Error (%) .....         2.005         1.895         1.139         0.816         0.994
  
  
  *************************
  Highest Continuity Errors
  *************************
  Node HS02004842 (13.41%)
  Node YS02001884 (11.13%)
  Node JK-storage (-10.17%)
  Node HS02004817 (2.53%)
  Node YSB1171 (2.46%)
  
  
  ***************************
  Time-Step Critical Elements
  ***************************
  Link WS02006252WS02006251 (59.44%)
  Link WS02006280WS02006229 (12.49%)
  Link WS02006238WS02006235 (7.53%)
  Link YS02001793JiankangQianchi (4.13%)
  Link YS02006556YS02006558 (3.86%)
  
  
  ********************************
  Highest Flow Instability Indexes
  ********************************
  Link WS02006113WS02006111 (49)
  Link YS02163301YS02001633 (31)
  Link YS02001629YS02163301 (31)
  Link YS02163601YS02164001 (30)
  Link YS02001619YS02001622 (30)
  
  
  *************************
  Routing Time Step Summary
  *************************
  Minimum Time Step           :     0.33 sec
  Average Time Step           :     1.28 sec
  Maximum Time Step           :     5.00 sec
  Percent in Steady State     :    -0.00
  Average Iterations per Step :     3.96
  Percent Not Converging      :    14.55
  
  
  ***************************
  Subcatchment Runoff Summary
  ***************************
  
  ------------------------------------------------------------------------------------------------------------------------------
                            Total      Total      Total      Total     Imperv       Perv      Total       Total     Peak  Runoff
                           Precip      Runon       Evap      Infil     Runoff     Runoff     Runoff      Runoff   Runoff   Coeff
  Subcatchment                 mm         mm         mm         mm         mm         mm         mm    10^6 ltr      LPS
  ------------------------------------------------------------------------------------------------------------------------------
  sub0                      13.45       0.00       0.00       0.63      12.47       0.31      12.77        0.01     3.75   0.950
  sub1                      13.45       0.00       0.00       1.12      11.88       0.36      12.24        0.08    25.66   0.910
  sub2                      13.45       0.00       0.00       4.44       8.39       0.53       8.92        0.08    25.29   0.663
  sub3                      13.45       0.00       0.00       4.56       8.35       0.42       8.77        0.20    55.75   0.652
  sub4                      13.45       0.00       0.00       1.22      11.71       0.26      11.97        0.25    65.52   0.890
  sub5                      13.45       0.00       0.00       0.68      12.41       0.26      12.67        0.14    44.76   0.942
  sub7                      13.45       0.00       0.00       0.86      12.18       0.35      12.53        0.04    14.26   0.931
  sub8                      13.45       0.00       0.00       0.87      12.17       0.34      12.50        0.08    26.26   0.930
  sub9                      13.45       0.00       0.00       0.88      12.17       0.33      12.50        0.06    19.64   0.929
  sub10                     13.45       0.00       0.00       0.78      12.29       0.29      12.58        0.14    44.00   0.935
  sub11                     13.45       0.00       0.00       0.77      12.30       0.31      12.61        0.15    48.45   0.938
  sub12                     13.45       0.00       0.00       1.25      11.66       0.50      12.16        0.11    38.10   0.904
  sub14                     13.45       0.00       0.00       0.88      12.16       0.33      12.49        0.12    38.67   0.929
  sub15                     13.45       0.00       0.00       3.37       9.35       0.66      10.01        0.17    57.01   0.744
  sub16                     13.45       0.00       0.00       3.56       8.97       0.88       9.85        0.10    37.63   0.732
  sub17                     13.45       0.00       0.00       3.47       9.10       0.84       9.94        0.09    30.67   0.739
  sub22                     13.45       0.00       0.00       4.98       7.63       0.81       8.43        0.53   184.54   0.627
  sub23                     13.45       0.00       0.00       4.17       8.43       0.81       9.24        0.44   154.22   0.687
  sub60                     13.45       0.00       0.00       1.53       9.85       0.09       9.93        3.01   438.14   0.738
  sub61                     13.45       0.00       0.00       2.16       9.95       0.12      10.07        3.11   536.45   0.749
  sub62                     13.45       0.00       0.00       0.98      10.84       0.10      10.94        3.36   552.35   0.813
  sub63                     13.45       0.00       0.00       3.77       8.69       0.14       8.83        2.67   492.63   0.656
  sub64                     13.45       0.00       0.00       1.93       9.45       0.09       9.54        2.90   416.72   0.709
  sub65                     13.45       0.00       0.00       1.67       9.61       0.08       9.70        2.98   423.09   0.721
  sub66                     13.45       0.00       0.00       3.81       8.10       0.09       8.18        2.51   380.66   0.608
  sub67                     13.45       0.00       0.00       0.95      11.38       0.13      11.51        3.55   679.52   0.856
  sub68                     13.45       0.00       0.00       1.75      10.45       0.13      10.59        3.26   586.26   0.787
  sub69                     13.45       0.00       0.00       1.83      10.79       0.19      10.98        2.57   544.72   0.816
  sub70                     13.45      11.20       0.00       7.51      14.65       0.88      15.52        3.55   494.81   0.630
  sub71                     13.45       0.00       0.00       0.99      10.58       0.09      10.67        2.52   389.24   0.793
  sub72                     13.45       0.00       0.00       0.89       8.56       0.05       8.61        1.75   189.18   0.640
  1                         13.45      15.11       0.00       1.37      16.56       4.63      21.19        4.98   484.42   0.742
  2                         13.45       0.00       0.00       3.02       3.21       1.96       5.17        2.07   340.45   0.384
  
  
  ****************************
  Subcatchment Washoff Summary
  ****************************
  
  ------------------------------------------------------------------------------------------
                                 COD            SS            TN            TP         NH4-N
  Subcatchment                    kg            kg            kg            kg            kg
  ------------------------------------------------------------------------------------------
  sub0                         2.670         5.197         0.046         0.004         0.022
  sub1                        11.241        22.423         0.210         0.015         0.101
  sub2                         6.894        13.384         0.145         0.010         0.067
  sub3                        16.924        32.573         0.350         0.024         0.161
  sub4                        25.772        51.904         0.510         0.031         0.245
  sub5                        25.778        50.682         0.460         0.035         0.223
  sub7                         5.751        11.638         0.108         0.007         0.052
  sub8                         8.581        17.755         0.171         0.010         0.082
  sub9                         7.353        15.005         0.142         0.009         0.068
  sub10                       21.202        42.223         0.389         0.028         0.188
  sub11                       20.657        41.614         0.386         0.026         0.187
  sub12                       17.724        35.094         0.321         0.024         0.155
  sub14                       15.732        31.800         0.298         0.020         0.144
  sub15                       20.231        39.321         0.389         0.028         0.182
  sub16                       13.129        25.518         0.249         0.019         0.117
  sub17                       12.049        23.208         0.222         0.017         0.105
  sub22                       62.582       119.432         1.186         0.090         0.554
  sub23                       36.683        72.439         0.776         0.051         0.357
  sub60                      243.520       456.962         4.842         0.298         2.321
  sub61                      302.151       564.434         5.627         0.386         2.710
  sub62                      313.722       596.076         6.119         0.388         2.938
  sub63                      223.275       410.850         4.468         0.314         2.075
  sub64                      305.877       553.773         5.626         0.410         2.687
  sub65                      313.037       569.066         5.795         0.415         2.772
  sub66                      176.068       321.340         3.608         0.236         1.687
  sub67                      466.222       877.505         8.365         0.616         4.045
  sub68                      332.037       626.413         6.347         0.429         3.034
  sub69                      298.258       568.561         5.590         0.393         2.674
  sub70                      502.897       962.303        10.037         0.699         4.710
  sub71                      206.745       396.330         4.242         0.246         2.030
  sub72                      164.385       293.107         3.069         0.210         1.476
  1                          349.075       671.606         7.102         0.495         3.297
  2                           42.749        75.577         1.214         0.073         0.518
  ------------------------------------------------------------------------------------------
  System                    4570.974      8595.115        88.408         6.057        41.983
  
  
  ******************
  Node Depth Summary
  ******************
  
  ---------------------------------------------------------------------------------
                                 Average  Maximum  Maximum  Time of Max    Reported
                                   Depth    Depth      HGL   Occurrence   Max Depth
  Node                 Type       Meters   Meters   Meters  days hr:min      Meters
  ---------------------------------------------------------------------------------
  WS02001211           JUNCTION     0.77     0.85     5.69     0  03:07        0.85
  WS02001212           JUNCTION     0.47     0.58     5.64     0  03:06        0.58
  WS02001213           JUNCTION     0.71     0.85     5.62     0  03:06        0.85
  WS02003069           JUNCTION     0.50     0.72     5.30     0  03:05        0.72
  WS02003072           JUNCTION     0.56     0.76     5.13     0  03:06        0.76
  WS02003073           JUNCTION     0.34     0.48     4.54     0  03:06        0.48
  WS02003060           JUNCTION     0.44     0.63     5.57     0  03:05        0.63
  WS02003066           JUNCTION     0.24     0.39     5.94     0  03:04        0.39
  WS02003059           JUNCTION     0.76     0.91     5.60     0  03:05        0.91
  WS02003067           JUNCTION     0.58     0.82     6.14     0  03:03        0.82
  WS02004401           JUNCTION     0.69     1.24     7.24     0  03:02        1.23
  WS02004402           JUNCTION     0.72     1.23     7.19     0  03:02        1.22
  WS02004403           JUNCTION     0.74     1.20     7.13     0  03:01        1.19
  WS02004404           JUNCTION     0.81     1.25     7.10     0  03:02        1.24
  WS02004406           JUNCTION     0.82     1.16     6.99     0  03:02        1.16
  WS02004409           JUNCTION     0.51     0.96     6.73     0  03:03        0.96
  WS02004410           JUNCTION     0.52     0.95     6.67     0  03:03        0.95
  WS02004411           JUNCTION     0.54     0.93     6.61     0  03:03        0.93
  WS02004412           JUNCTION     0.55     0.90     6.54     0  03:03        0.90
  WS02004413           JUNCTION     0.71     1.02     6.49     0  03:03        1.02
  WS02004405           JUNCTION     0.81     1.22     7.07     0  03:02        1.22
  WS02006109           JUNCTION     0.78     1.66     8.28     0  03:02        1.64
  WS02006110           JUNCTION     0.77     1.45     8.04     0  03:02        1.45
  WS02006111           JUNCTION     0.24     0.89     7.59     0  03:02        0.88
  WS02006112           JUNCTION     0.87     1.56     7.45     0  03:02        1.55
  WS02006113           JUNCTION     0.35     0.92     7.82     0  03:02        0.92
  WS02006115           JUNCTION     0.59     1.22     7.36     0  03:02        1.21
  WS02006116           JUNCTION     0.67     1.26     7.30     0  03:02        1.25
  WS02006230           JUNCTION     0.77     1.88     8.62     0  03:02        1.87
  WS02006231           JUNCTION     0.52     1.52     8.65     0  03:02        1.51
  WS02006232           JUNCTION     0.65     1.63     8.67     0  03:02        1.62
  WS02006234           JUNCTION     0.58     1.53     8.68     0  03:02        1.52
  WS02006235           JUNCTION     0.61     1.54     8.71     0  03:02        1.52
  WS02006238           JUNCTION     0.63     1.56     8.70     0  03:02        1.55
  WS02006240           JUNCTION     0.52     1.41     8.70     0  03:02        1.39
  WS02006242           JUNCTION     0.57     1.43     8.70     0  03:01        1.42
  WS02006243           JUNCTION     0.45     1.28     8.70     0  03:02        1.27
  WS02006245           JUNCTION     0.42     1.22     8.70     0  03:02        1.20
  WS02006247           JUNCTION     0.43     1.20     8.70     0  03:01        1.19
  WS02006248           JUNCTION     0.36     1.10     8.69     0  02:56        1.10
  WS02006249           JUNCTION     0.39     1.09     8.69     0  02:54        1.09
  WS02006239           JUNCTION     0.58     1.49     8.70     0  03:02        1.48
  WS02006251           JUNCTION     0.36     1.37     9.04     0  02:54        1.20
  WS02006252           JUNCTION     0.25     0.83     9.07     0  02:54        0.75
  WS02006253           JUNCTION     0.39     1.45     9.10     0  02:54        1.23
  WS02006256           JUNCTION     1.69     2.35     9.28     0  00:28        2.35
  WS02004138           JUNCTION     0.19     0.20     7.45     0  00:00        0.19
  WS02004139           JUNCTION     0.71     0.79     5.70     0  03:07        0.79
  WS02004407           JUNCTION     0.23     0.40     6.71     0  03:02        0.40
  WS02006228           JUNCTION     0.79     1.83     8.48     0  03:02        1.82
  WS02006229           JUNCTION     0.77     1.90     8.60     0  03:02        1.89
  WS02006280           JUNCTION     0.07     0.29     8.57     0  03:05        0.29
  WS02006284           JUNCTION     0.37     0.65     9.04     0  03:02        0.64
  WS02006287           JUNCTION     0.10     0.39     9.34     0  03:02        0.39
  WSF200               JUNCTION     0.22     0.44     5.67     0  03:04        0.44
  HS02004901           JUNCTION     0.13     0.38    10.20     0  03:01        0.37
  HS02004881           JUNCTION     0.01     0.05     9.08     0  03:01        0.05
  HS02004876           JUNCTION     0.04     0.16     9.19     0  03:01        0.16
  HS02004870           JUNCTION     0.02     0.09     9.38     0  03:01        0.09
  HS02004862           JUNCTION     0.02     0.11     9.49     0  03:01        0.11
  HS02004856           JUNCTION     0.08     0.15     9.58     0  03:01        0.15
  HS02004852           JUNCTION     0.01     0.07     9.59     0  03:02        0.07
  HS02004848           JUNCTION     0.01     0.07     9.67     0  03:01        0.07
  HS02004842           JUNCTION     0.34     0.40     9.67     0  03:01        0.40
  HS02004837           JUNCTION     0.03     0.09     9.67     0  03:01        0.09
  HS02004830           JUNCTION     0.04     0.10     9.57     0  03:01        0.10
  HS02004824           JUNCTION     0.02     0.13     9.53     0  03:02        0.13
  HS02004817           JUNCTION     0.44     0.69     9.54     0  03:02        0.69
  HS02004807           JUNCTION     0.13     0.36     9.53     0  03:02        0.36
  HS02004802           JUNCTION     0.17     0.39     9.52     0  03:02        0.39
  HS02004799           JUNCTION     0.12     0.46     9.68     0  03:01        0.46
  HS02004792           JUNCTION     0.04     0.22     9.74     0  03:01        0.21
  HS02004788           JUNCTION     0.03     0.16    10.05     0  03:02        0.16
  HS02004785           JUNCTION     0.05     0.25    10.15     0  03:02        0.25
  HS02004777           JUNCTION     0.15     0.39    10.19     0  03:01        0.39
  HS02004770           JUNCTION     0.12     0.37    10.20     0  03:01        0.36
  HS02004480           JUNCTION     0.08     0.38     9.62     0  03:01        0.38
  HS02004479           JUNCTION     0.12     0.42     9.62     0  03:01        0.42
  HS02004478           JUNCTION     0.06     0.28     9.50     0  03:01        0.28
  YS02001745           JUNCTION     0.73     0.94     8.46     0  03:00        0.94
  YS02001748           JUNCTION     1.12     2.27     9.35     0  02:33        1.38
  YS02001751           JUNCTION     1.30     2.17     9.05     0  02:33        1.57
  YS02001754           JUNCTION     1.55     2.11     8.72     0  02:33        1.84
  YS02001762           JUNCTION     1.75     2.06     8.46     0  03:00        2.03
  YS02001765           JUNCTION     1.71     2.01     8.46     0  03:00        1.98
  YS02001767           JUNCTION     1.67     1.96     8.45     0  03:00        1.94
  YS02001770           JUNCTION     1.66     1.95     8.44     0  03:00        1.93
  YS02001774           JUNCTION     1.73     1.99     8.41     0  02:33        1.98
  YS02001779           JUNCTION     1.48     1.68     8.37     0  02:33        1.68
  YS02001882           JUNCTION     0.55     1.64     8.35     0  03:01        1.63
  YS02001884           JUNCTION     0.64     1.74     8.35     0  03:02        1.73
  YS02001759           JUNCTION     1.79     2.10     8.46     0  03:00        2.07
  YS02001887           JUNCTION     0.72     1.82     8.35     0  03:00        1.81
  YS02001890           JUNCTION     0.75     1.81     8.32     0  02:50        1.81
  YS02001898           JUNCTION     0.52     1.56     8.30     0  02:52        1.56
  YS02001901           JUNCTION     0.63     1.68     8.29     0  02:51        1.67
  YS02001904           JUNCTION     0.61     1.64     8.27     0  03:00        1.63
  YS02001907           JUNCTION     0.94     1.96     8.25     0  02:50        1.96
  YS02001910           JUNCTION     0.73     1.78     8.29     0  02:52        1.77
  YS02001915           JUNCTION     0.53     1.60     8.32     0  02:51        1.59
  YS02001918           JUNCTION     0.29     1.28     8.35     0  02:51        1.27
  YS02001619           JUNCTION     1.26     1.61     8.54     0  02:30        1.48
  YS02001629           JUNCTION     1.61     1.85     8.40     0  02:30        1.84
  YS02001641           JUNCTION     1.71     1.94     8.37     0  02:54        1.93
  YS02001644           JUNCTION     1.71     1.92     8.35     0  02:39        1.92
  YS02001652           JUNCTION     1.57     2.16     8.76     0  02:46        1.89
  YS02001655           JUNCTION     1.33     2.20     9.05     0  02:46        1.67
  YS02001920           JUNCTION     0.39     1.36     8.37     0  02:51        1.34
  YS02001923           JUNCTION     0.23     1.12     8.38     0  02:51        1.10
  YS02001926           JUNCTION     0.28     0.94     8.39     0  02:51        0.93
  YS02001929           JUNCTION     0.16     0.71     8.40     0  02:52        0.71
  YS02001658           JUNCTION     1.06     2.30     9.44     0  02:46        1.43
  YS02001661           JUNCTION     0.83     2.46     9.86     0  02:46        1.11
  YS02001664           JUNCTION     0.37     0.58     8.50     0  02:42        0.55
  YS02001622           JUNCTION     1.28     1.62     8.52     0  02:30        1.50
  YS02001633           JUNCTION     1.70     1.95     8.40     0  07:32        1.94
  YS02001649           JUNCTION     1.76     2.05     8.44     0  02:43        2.05
  YS02001757           JUNCTION     1.89     2.21     8.47     0  02:33        2.18
  YS02001895           JUNCTION     0.51     1.57     8.31     0  02:59        1.56
  YS02001625           JUNCTION     1.57     1.78     8.38     0  02:30        1.78
  YS02163301           JUNCTION     1.64     1.88     8.40     0  07:32        1.87
  YS02163601           JUNCTION     1.76     2.00     8.39     0  07:32        1.98
  YS02164001           JUNCTION     1.69     1.93     8.39     0  07:32        1.91
  YS02001647           JUNCTION     1.55     1.80     8.41     0  02:46        1.78
  YSB1154              JUNCTION     0.26     0.57     9.62     0  03:01        0.57
  YSB6556              JUNCTION     0.15     0.45     9.62     0  03:02        0.45
  YSB1174              JUNCTION     0.21     0.52     9.62     0  03:01        0.51
  YSB1171              JUNCTION     0.41     0.72     9.62     0  03:01        0.72
  YS02006553           JUNCTION     0.94     2.00     8.28     0  03:02        1.96
  YS02006561           JUNCTION     0.30     1.11     7.77     0  03:02        1.08
  YS02006556           JUNCTION     0.91     2.00     8.31     0  03:02        1.93
  YS02006558           JUNCTION     0.95     2.06     8.32     0  03:02        1.98
  YS02001783           JUNCTION     0.52     1.49     7.63     0  03:02        1.47
  YS02001784           JUNCTION     0.53     1.43     7.50     0  03:02        1.41
  YS02001786           JUNCTION     0.47     1.26     7.29     0  03:08        1.26
  YS02001788           JUNCTION     0.40     1.13     7.11     0  03:11        1.12
  YS02001790           JUNCTION     0.51     1.96     7.60     0  06:18        1.29
  YS02001791           JUNCTION     0.47     1.95     7.42     0  06:16        1.27
  YS02001793           JUNCTION     0.63     2.01     6.84     0  06:16        1.79
  WSC                  OUTFALL      0.34     0.48     1.15     0  03:07        0.48
  JK-storage           STORAGE      2.78     5.80     6.60     0  02:14        5.80
  CC-storage           STORAGE      1.14     1.45     8.45     0  03:18        1.45
  XR-storage           STORAGE      6.62     7.72     5.72     0  02:55        7.72
  
  
  *******************
  Node Inflow Summary
  *******************
  
  -------------------------------------------------------------------------------------------------
                                  Maximum  Maximum                  Lateral       Total        Flow
                                  Lateral    Total  Time of Max      Inflow      Inflow     Balance
                                   Inflow   Inflow   Occurrence      Volume      Volume       Error
  Node                 Type           LPS      LPS  days hr:min    10^6 ltr    10^6 ltr     Percent
  -------------------------------------------------------------------------------------------------
  WS02001211           JUNCTION      7.35   393.24     0  03:14       0.207        9.97       0.406
  WS02001212           JUNCTION      0.00   399.34     0  03:15           0        9.93       0.247
  WS02001213           JUNCTION      0.00   404.32     0  03:15           0         9.9       0.289
  WS02003069           JUNCTION      0.32  1333.34     0  03:05     0.00902        18.8       0.190
  WS02003072           JUNCTION      0.00  1333.14     0  03:05           0        18.8       0.227
  WS02003073           JUNCTION      1.82  1335.09     0  03:06      0.0514        18.8       0.265
  WS02003060           JUNCTION     16.53  1333.10     0  03:04       0.466        18.8       0.179
  WS02003066           JUNCTION      0.00   938.53     0  03:04           0        8.54       0.054
  WS02003059           JUNCTION      0.00   410.06     0  03:14           0        9.88       0.414
  WS02003067           JUNCTION      0.00   938.07     0  03:04           0        8.55       0.112
  WS02004401           JUNCTION      0.00   940.06     0  03:02           0        8.78       0.236
  WS02004402           JUNCTION      0.00   940.54     0  03:02           0        8.76       0.224
  WS02004403           JUNCTION      0.00   940.25     0  03:02           0        8.74       0.204
  WS02004404           JUNCTION      0.16   940.19     0  03:02     0.00457        8.73       0.155
  WS02004406           JUNCTION      0.00   940.14     0  03:02           0         8.7       0.378
  WS02004409           JUNCTION      0.00   939.38     0  03:02           0        8.66       0.191
  WS02004410           JUNCTION      0.00   938.18     0  03:03           0        8.64       0.217
  WS02004411           JUNCTION      0.00   937.75     0  03:03           0        8.62       0.224
  WS02004412           JUNCTION      0.00   937.41     0  03:03           0         8.6       0.242
  WS02004413           JUNCTION      0.00   937.86     0  03:03           0        8.58       0.359
  WS02004405           JUNCTION      0.04   940.63     0  03:02     0.00107        8.72       0.231
  WS02006109           JUNCTION      1.23   915.89     0  03:02      0.0347        8.81       0.198
  WS02006110           JUNCTION      0.00   916.04     0  03:02           0        8.79       0.215
  WS02006111           JUNCTION      0.00   915.83     0  03:03           0        8.77       0.037
  WS02006112           JUNCTION     30.67   939.89     0  03:02      0.0853        8.85       0.325
  WS02006113           JUNCTION      0.00   915.75     0  03:02           0        8.78       0.099
  WS02006115           JUNCTION      0.00   939.90     0  03:02           0        8.82       0.226
  WS02006116           JUNCTION      0.00   940.67     0  03:02           0         8.8       0.190
  WS02006230           JUNCTION     10.28   532.65     0  06:42        0.29        6.38       0.158
  WS02006231           JUNCTION      0.00   522.56     0  06:41           0         6.1       0.136
  WS02006232           JUNCTION      0.00   522.64     0  06:40           0        6.11       0.231
  WS02006234           JUNCTION      0.00   522.93     0  06:40           0        6.12       0.101
  WS02006235           JUNCTION      0.00   523.90     0  06:40           0        6.21       0.153
  WS02006238           JUNCTION      0.00   400.00     0  07:31           0        2.64       0.192
  WS02006240           JUNCTION      0.00   398.79     0  07:30           0        2.58       0.402
  WS02006242           JUNCTION      0.00   398.62     0  07:30           0        2.56       0.503
  WS02006243           JUNCTION      0.00   398.65     0  07:30           0        2.56       0.308
  WS02006245           JUNCTION      0.00   398.02     0  07:30           0        2.56       0.378
  WS02006247           JUNCTION      0.00   397.67     0  07:30           0        2.56       0.262
  WS02006248           JUNCTION      0.00   397.64     0  07:30           0        2.57       0.124
  WS02006249           JUNCTION      0.00   537.15     0  03:00           0         2.8       0.383
  WS02006239           JUNCTION      0.00   399.26     0  07:31           0        2.61       0.272
  WS02006251           JUNCTION      0.08   535.73     0  03:00     0.00217        2.86       0.274
  WS02006252           JUNCTION      0.00   399.85     0  03:40           0        2.34       0.019
  WS02006253           JUNCTION      3.75   167.90     0  03:40      0.0103       0.516       0.703
  WS02006256           JUNCTION      0.00   983.00     0  02:30           0        9.92       0.000
  WS02004138           JUNCTION      0.00   380.00     0  00:00           0         9.8       0.069
  WS02004139           JUNCTION      0.32   394.45     0  00:00     0.00905        9.81       0.465
  WS02004407           JUNCTION      0.00   939.90     0  03:02           0        8.67       0.082
  WS02006228           JUNCTION      0.00   914.52     0  03:02           0        8.79       0.135
  WS02006229           JUNCTION      0.00   916.64     0  03:02           0         8.8       0.154
  WS02006280           JUNCTION      0.00   680.14     0  03:02           0        2.43       0.005
  WS02006284           JUNCTION      0.10   679.01     0  03:02      0.0027        2.43       0.046
  WS02006287           JUNCTION      0.00   677.64     0  03:02           0        2.43       0.031
  WSF200               JUNCTION      0.00   938.67     0  03:04           0        8.54       0.050
  HS02004901           JUNCTION     37.63    37.63     0  03:01       0.103       0.103       1.741
  HS02004881           JUNCTION     14.26   140.52     0  03:01      0.0422       0.463       0.065
  HS02004876           JUNCTION     25.66   127.65     0  03:01      0.0814       0.422       0.131
  HS02004870           JUNCTION     26.26   103.59     0  03:01      0.0799        0.34       0.035
  HS02004862           JUNCTION     25.49    79.37     0  03:01      0.0888       0.261       0.068
  HS02004856           JUNCTION     19.64    55.40     0  03:01      0.0601       0.173       0.845
  HS02004852           JUNCTION      0.00    37.84     0  03:01           0       0.113       0.053
  HS02004848           JUNCTION     55.75    55.75     0  03:01       0.197       0.197       0.028
  HS02004842           JUNCTION      0.00    16.84     0  03:01           0       0.097      15.492
  HS02004837           JUNCTION     50.35    65.69     0  03:01       0.318       0.402       0.204
  HS02004830           JUNCTION      0.15    64.80     0  03:01     0.00423       0.392       0.316
  HS02004824           JUNCTION     65.57   128.43     0  03:01       0.251       0.642       0.086
  HS02004817           JUNCTION      0.60   124.46     0  03:01      0.0169       0.658       2.599
  HS02004807           JUNCTION     48.45   165.71     0  03:01       0.147       0.788       0.554
  HS02004802           JUNCTION      0.00   165.30     0  03:04           0       0.785       0.508
  HS02004799           JUNCTION     38.67   446.04     0  03:01       0.119        1.42       0.191
  HS02004792           JUNCTION    184.82   411.78     0  03:01        0.54         1.3       0.033
  HS02004788           JUNCTION     58.68   233.44     0  03:02       0.219       0.758       0.052
  HS02004785           JUNCTION      0.15   182.21     0  03:01     0.00423        0.54       0.093
  HS02004777           JUNCTION      0.03   185.02     0  03:01    0.000846       0.541       0.972
  HS02004770           JUNCTION    154.22   188.95     0  03:01       0.441       0.542       0.578
  HS02004480           JUNCTION      0.00   517.25     0  03:01           0        1.66       0.069
  HS02004479           JUNCTION      0.00    75.48     0  03:02           0       0.258       0.287
  HS02004478           JUNCTION      0.00   677.05     0  03:02           0        2.43       0.011
  YS02001745           JUNCTION    438.14   438.14     0  03:01        3.01        3.02       0.358
  YS02001748           JUNCTION      0.04   578.04     0  02:32     0.00127        3.01       0.684
  YS02001751           JUNCTION      0.01   443.35     0  03:01     0.00031        2.98       0.792
  YS02001754           JUNCTION      0.26   443.25     0  03:01     0.00733        2.96       0.849
  YS02001762           JUNCTION      0.00   316.25     0  02:42           0        1.96       1.102
  YS02001765           JUNCTION      0.00   315.95     0  02:42           0        1.96       1.262
  YS02001767           JUNCTION      0.54   315.78     0  02:42      0.0151        1.98       1.836
  YS02001770           JUNCTION    552.50   668.94     0  03:18        3.37         4.1       0.776
  YS02001774           JUNCTION      0.00   669.15     0  03:18           0        2.83       0.890
  YS02001779           JUNCTION      0.01   669.04     0  03:18    0.000141         2.8       0.559
  YS02001882           JUNCTION      0.00    15.15     0  04:09           0      0.0171      15.002
  YS02001884           JUNCTION      0.00    21.34     0  02:40           0      0.0545      12.520
  YS02001759           JUNCTION    536.49   621.93     0  02:42        3.11         4.3       0.532
  YS02001887           JUNCTION    679.97   680.49     0  03:01        3.56         3.6       0.237
  YS02001890           JUNCTION      0.00   681.65     0  03:01           0        3.55       0.262
  YS02001898           JUNCTION      0.00   518.35     0  03:00           0        3.45       0.083
  YS02001901           JUNCTION      0.00   518.31     0  03:00           0        3.45       0.206
  YS02001904           JUNCTION      0.00   518.57     0  03:00           0        3.44       0.178
  YS02001907           JUNCTION      0.00  1112.09     0  03:01           0        7.77       0.305
  YS02001910           JUNCTION      0.00   594.76     0  03:01           0        4.34       0.273
  YS02001915           JUNCTION    389.26   594.88     0  03:01        2.52        4.35       0.140
  YS02001918           JUNCTION      0.00   258.80     0  02:52           0        1.84       0.109
  YS02001619           JUNCTION    380.66   380.66     0  03:01        2.51        2.51       0.489
  YS02001629           JUNCTION      0.00   195.06     0  02:39           0        1.59       1.854
  YS02001641           JUNCTION      0.00   411.53     0  02:39           0        4.45       0.477
  YS02001644           JUNCTION    416.76  1492.50     0  03:01         2.9        11.8       0.225
  YS02001652           JUNCTION      0.00   503.23     0  03:01           0        2.62       0.904
  YS02001655           JUNCTION      0.15   502.66     0  03:01     0.00434        2.65       0.911
  YS02001920           JUNCTION      2.87   258.93     0  02:52      0.0809        1.84       0.173
  YS02001923           JUNCTION      0.04   229.59     0  02:52     0.00106        1.75       0.053
  YS02001926           JUNCTION      0.05   200.01     0  03:01     0.00147        1.75       0.199
  YS02001929           JUNCTION    189.18   189.18     0  03:01        1.75        1.75       0.036
  YS02001658           JUNCTION      0.00   600.54     0  02:29           0        2.68       0.830
  YS02001661           JUNCTION      0.00   687.04     0  02:42           0        2.96       0.051
  YS02001664           JUNCTION    492.63   492.63     0  03:01        2.67        2.96       0.183
  YS02001622           JUNCTION      0.00   381.88     0  03:01           0         2.5       1.288
  YS02001633           JUNCTION    423.29   423.29     0  03:01        2.99        4.52       0.716
  YS02001649           JUNCTION      0.00   876.30     0  02:39           0        6.87       0.543
  YS02001757           JUNCTION      0.00  1680.14     0  02:40           0        9.08       1.023
  YS02001895           JUNCTION      0.00   518.31     0  03:00           0        3.45       0.149
  YS02001625           JUNCTION      0.00   408.14     0  03:01           0        2.48       1.584
  YS02163301           JUNCTION      0.00   216.68     0  02:33           0        1.57       1.564
  YS02163601           JUNCTION      0.11   410.59     0  02:39      0.0031        4.48       0.676
  YS02164001           JUNCTION      0.00   411.15     0  02:39           0        4.46       0.456
  YS02001647           JUNCTION      0.00   777.26     0  03:20           0         6.1       0.465
  YSB1154              JUNCTION     44.76    44.76     0  03:01       0.144       0.144       1.017
  YSB6556              JUNCTION      0.00    43.28     0  03:01           0       0.145       0.869
  YSB1174              JUNCTION     38.10    38.10     0  03:01       0.106       0.107       1.222
  YSB1171              JUNCTION      0.00    76.93     0  03:01           0       0.257       2.527
  YS02006553           JUNCTION      0.00   719.55     0  02:51           0        6.87       0.219
  YS02006561           JUNCTION      0.00  1151.43     0  03:01           0        10.1       0.008
  YS02006556           JUNCTION      0.00   719.83     0  02:51           0        6.87       0.160
  YS02006558           JUNCTION    587.14  1152.38     0  03:00        3.28        10.1       0.050
  YS02001783           JUNCTION      0.00  1151.68     0  03:00           0        10.1       0.023
  YS02001784           JUNCTION      1.06  1152.73     0  03:00      0.0299        10.1       0.032
  YS02001786           JUNCTION      0.06  1152.50     0  03:00     0.00159        10.1       0.035
  YS02001788           JUNCTION      0.07  1152.70     0  03:00       0.002        10.1       0.019
  YS02001790           JUNCTION      0.15  1165.15     0  02:59     0.00437        10.1       0.017
  YS02001791           JUNCTION      0.00  1277.77     0  02:58           0        10.1      -0.001
  YS02001793           JUNCTION      0.00  1233.37     0  02:55           0        10.1      -0.014
  WSC                  OUTFALL       0.00  1335.37     0  03:07           0        18.7       0.000
  JK-storage           STORAGE       0.00  1186.55     0  02:51           0        10.3      -9.235
  CC-storage           STORAGE       0.00  1681.09     0  02:40           0        6.28       1.017
  XR-storage           STORAGE    1024.87  1024.87     0  03:01        12.7        13.3       0.001
  
  
  **********************
  Node Surcharge Summary
  **********************
  
  Surcharging occurs when water rises above the top of the highest conduit.
  ---------------------------------------------------------------------
                                               Max. Height   Min. Depth
                                   Hours       Above Crown    Below Rim
  Node                 Type      Surcharged         Meters       Meters
  ---------------------------------------------------------------------
  WS02004401           JUNCTION        0.42          0.236        1.424
  WS02004402           JUNCTION        0.46          0.227        1.513
  WS02004403           JUNCTION        0.47          0.200        1.830
  WS02004404           JUNCTION        0.68          0.247        2.533
  WS02004406           JUNCTION        0.60          0.164        2.286
  WS02004413           JUNCTION        0.19          0.023        2.177
  WS02004405           JUNCTION        0.64          0.221        2.579
  WS02006109           JUNCTION        2.53          0.842        0.978
  WS02006110           JUNCTION        1.12          0.544        1.306
  WS02006111           JUNCTION        0.13          0.076        1.794
  WS02006112           JUNCTION        1.34          0.564        1.116
  WS02006113           JUNCTION        0.16          0.123        1.807
  WS02006115           JUNCTION        0.29          0.209        2.041
  WS02006116           JUNCTION        0.31          0.202        2.088
  WS02006230           JUNCTION        0.82          0.799        0.771
  WS02006231           JUNCTION        1.03          0.814        0.716
  WS02006232           JUNCTION        2.33          0.929        0.551
  WS02006234           JUNCTION        1.43          0.806        0.434
  WS02006235           JUNCTION        1.76          0.832        0.458
  WS02006238           JUNCTION        1.92          0.838        0.592
  WS02006240           JUNCTION        1.22          0.695        0.695
  WS02006242           JUNCTION        1.32          0.699        0.121
  WS02006243           JUNCTION        0.90          0.566        0.204
  WS02006245           JUNCTION        0.79          0.505        0.345
  WS02006247           JUNCTION        0.79          0.489        0.271
  WS02006248           JUNCTION        0.68          0.380        0.000
  WS02006249           JUNCTION        0.71          0.390        0.000
  WS02006239           JUNCTION        1.40          0.752        0.538
  WS02006251           JUNCTION        0.33          0.342        0.838
  WS02006252           JUNCTION        1.09          0.433        0.667
  WS02006253           JUNCTION        0.36          0.412        2.068
  WS02006256           JUNCTION        6.92          2.050        0.000
  WS02006228           JUNCTION        2.47          0.998        1.202
  YS02001748           JUNCTION        5.22          1.190        0.000
  YS02001751           JUNCTION        5.37          1.167        0.033
  YS02001754           JUNCTION        5.58          1.061        0.089
  YS02001762           JUNCTION        5.75          1.061        0.089
  YS02001765           JUNCTION        5.72          1.009        0.091
  YS02001767           JUNCTION        5.69          0.964        0.066
  YS02001770           JUNCTION        5.68          0.915        0.005
  YS02001774           JUNCTION        5.74          0.992        0.058
  YS02001779           JUNCTION        5.56          0.680        0.000
  YS02001882           JUNCTION        1.06          0.637        0.193
  YS02001884           JUNCTION        1.09          0.675        0.195
  YS02001759           JUNCTION        5.78          1.097        0.113
  YS02001887           JUNCTION        1.17          0.766        0.184
  YS02001890           JUNCTION        1.19          0.760        0.000
  YS02001898           JUNCTION        1.02          0.532        0.208
  YS02001901           JUNCTION        1.13          0.677        0.193
  YS02001904           JUNCTION        1.10          0.637        0.213
  YS02001907           JUNCTION        1.89          0.950        0.000
  YS02001910           JUNCTION        1.24          0.783        0.317
  YS02001915           JUNCTION        1.04          0.600        0.400
  YS02001918           JUNCTION        0.85          0.280        0.530
  YS02001619           JUNCTION        5.37          0.610        0.000
  YS02001629           JUNCTION        5.38          0.470        0.000
  YS02001641           JUNCTION        5.73          0.937        0.163
  YS02001644           JUNCTION        5.73          0.920        0.000
  YS02001652           JUNCTION        5.61          1.130        0.000
  YS02001655           JUNCTION        5.39          1.197        0.003
  YS02001920           JUNCTION        0.88          0.359        0.781
  YS02001658           JUNCTION        5.25          1.300        0.000
  YS02001661           JUNCTION        0.07          1.390        0.000
  YS02001622           JUNCTION        5.41          0.620        0.000
  YS02001633           JUNCTION        5.71          0.929        0.131
  YS02001649           JUNCTION        5.76          1.050        0.000
  YS02001757           JUNCTION        5.86          1.210        0.000
  YS02001895           JUNCTION        1.03          0.566        0.184
  YS02001625           JUNCTION        5.64          0.780        0.000
  YS02163301           JUNCTION        5.68          0.883        0.147
  YS02163601           JUNCTION        5.75          0.997        0.083
  YS02164001           JUNCTION        5.72          0.928        0.172
  YS02001647           JUNCTION        5.62          0.803        0.097
  YS02006553           JUNCTION        1.98          0.995        0.195
  YS02006561           JUNCTION        0.85          0.308        0.842
  YS02006556           JUNCTION        1.46          0.962        0.388
  YS02006558           JUNCTION        1.42          0.957        0.443
  YS02001783           JUNCTION        1.33          0.692        0.908
  YS02001784           JUNCTION        1.32          0.635        0.855
  YS02001786           JUNCTION        1.11          0.463        0.967
  YS02001788           JUNCTION        0.81          0.332        1.148
  YS02001790           JUNCTION        1.74          1.157        0.000
  YS02001791           JUNCTION        1.83          1.155        0.765
  YS02001793           JUNCTION        2.16          1.012        1.588
  
  
  *********************
  Node Flooding Summary
  *********************
  
  Flooding refers to all water that overflows a node, whether it ponds or not.
  --------------------------------------------------------------------------
                                                             Total   Maximum
                                 Maximum   Time of Max       Flood    Ponded
                        Hours       Rate    Occurrence      Volume     Depth
  Node                 Flooded       LPS   days hr:min    10^6 ltr    Meters
  --------------------------------------------------------------------------
  WS02006248              0.08     14.84      0  03:03       0.002     0.000
  WS02006249              0.32    424.88      0  03:00       0.226     0.000
  WS02006256              3.85    826.83      0  02:59       6.291     0.000
  YS02001748              0.01    177.11      0  02:33       0.000     0.000
  YS02001779              3.22    668.97      0  03:18       2.782     0.000
  YS02001890              0.34    164.01      0  03:01       0.085     0.000
  YS02001907              0.72    646.90      0  03:03       0.892     0.000
  YS02001619              0.01     11.16      0  02:30       0.000     0.000
  YS02001629              0.01     23.87      0  02:30       0.000     0.000
  YS02001644              4.43   1492.04      0  03:01      10.189     0.000
  YS02001652              0.01     17.08      0  02:46       0.000     0.000
  YS02001658              0.01     10.47      0  02:46       0.000     0.000
  YS02001661              0.01    158.87      0  02:46       0.000     0.000
  YS02001622              0.01     22.66      0  02:30       0.000     0.000
  YS02001649              0.01     45.24      0  02:46       0.001     0.000
  YS02001757              0.01     15.03      0  02:33       0.000     0.000
  YS02001625              1.40    407.43      0  03:01       0.856     0.000
  YS02001790              0.01     92.16      0  06:18       0.000     0.000
  JK-storage              1.00    966.60      0  03:10       1.276     0.000
  XR-storage              3.52    644.72      0  03:01       2.728     0.000
  
  
  **********************
  Storage Volume Summary
  **********************
  
  --------------------------------------------------------------------------------------------------
                         Average     Avg  Evap Exfil       Maximum     Max    Time of Max    Maximum
                          Volume    Pcnt  Pcnt  Pcnt        Volume    Pcnt     Occurrence    Outflow
  Storage Unit           1000 m3    Full  Loss  Loss       1000 m3    Full    days hr:min        LPS
  --------------------------------------------------------------------------------------------------
  JK-storage               0.140      48     0     0         0.291     100       0  02:14     983.00
  CC-storage               3.190      20     0     0         4.028      26       0  03:18     399.85
  XR-storage               0.795      86     0     0         0.926     100       0  02:55     380.00
  
  
  ***********************
  Outfall Loading Summary
  ***********************
  
  ---------------------------------------------------------------------------------------------------------------------------------
                         Flow       Avg       Max       Total         Total         Total         Total         Total         Total
                         Freq      Flow      Flow      Volume           COD            SS            TN            TP         NH4-N
  Outfall Node           Pcnt       LPS       LPS    10^6 ltr            kg            kg            kg            kg            kg
  ---------------------------------------------------------------------------------------------------------------------------------
  WSC                  100.00    732.46   1335.37      18.733      2273.413      3926.928       145.850        17.181        88.287
  ---------------------------------------------------------------------------------------------------------------------------------
  System               100.00    732.46   1335.37      18.733      2273.413      3926.928       145.850        17.181        88.287
  
  
  ********************
  Link Flow Summary
  ********************
  
  -----------------------------------------------------------------------------
                                 Maximum  Time of Max   Maximum    Max/    Max/
                                  |Flow|   Occurrence   |Veloc|    Full    Full
  Link                 Type          LPS  days hr:min     m/sec    Flow   Depth
  -----------------------------------------------------------------------------
  WS02003066WSF200     CONDUIT    938.67     0  03:04      3.00    0.16    0.32
  WS02006287WS02006284 CONDUIT    678.92     0  03:02      2.38    0.31    0.39
  WS02006284WS02006280 CONDUIT    680.14     0  03:02      2.62    0.28    0.37
  WS02006280WS02006229 CONDUIT    680.20     0  03:02      3.84    0.15    0.50
  WS02006229WS02006228 CONDUIT    914.52     0  03:02      1.82    3.03    1.00
  WS02006256WS02006235 CONDUIT    259.48     0  00:28      3.67    2.75    1.00
  WS02006253WS02006251 CONDUIT    164.11     0  03:09      0.56    0.49    1.00
  WS02006252WS02006251 CONDUIT    403.66     0  06:40      3.21    1.48    1.00
  WS02006251WS02006249 CONDUIT    537.15     0  03:00      1.40    1.55    1.00
  WS02006249WS02006248 CONDUIT    397.64     0  07:30      1.19    2.18    1.00
  WS02006248WS02006247 CONDUIT    397.67     0  07:30      1.16    0.87    1.00
  WS02006247WS02006245 CONDUIT    398.02     0  07:30      1.14    3.16    1.00
  WS02006245WS02006243 CONDUIT    398.65     0  07:30      1.18    1.18    1.00
  WS02006243WS02006242 CONDUIT    398.62     0  07:30      1.07    0.85    1.00
  WS02006242WS02006240 CONDUIT    398.79     0  07:30      1.04    1.58    1.00
  WS02006240WS02006239 CONDUIT    399.26     0  07:31      1.04    1.26    1.00
  WS02006239WS02006238 CONDUIT    400.00     0  07:31      1.04    1.28    1.00
  WS02006238WS02006235 CONDUIT    400.92     0  07:31      1.04    0.89    1.00
  WS02006235WS02006234 CONDUIT    522.93     0  06:40      1.36    5.52    1.00
  WS02006234WS02006232 CONDUIT    522.64     0  06:40      1.36    1.06    1.00
  WS02006232WS02006231 CONDUIT    522.56     0  06:41      1.36    1.09    1.00
  WS02006231WS02006230 CONDUIT    522.37     0  06:42      1.36    7.92    1.00
  WS02006230WS02006229 CONDUIT    535.77     0  06:40      1.39   11.92    1.00
  WS02006228WS02006109 CONDUIT    914.66     0  03:02      1.82    4.00    1.00
  WS02006116WS02004401 CONDUIT    940.06     0  03:02      1.20    1.30    1.00
  WS02006115WS02006116 CONDUIT    940.67     0  03:02      1.20    1.21    1.00
  WS02006113WS02006111 CONDUIT    915.83     0  03:03      2.59    1.10    1.00
  WS02006112WS02006115 CONDUIT    939.90     0  03:02      1.20    0.55    1.00
  WS02006111WS02006112 CONDUIT    916.23     0  03:02      1.82    0.44    1.00
  WS02006110WS02006113 CONDUIT    915.75     0  03:02      1.82    0.83    1.00
  WS02006109WS02006110 CONDUIT    916.04     0  03:02      1.82    1.76    1.00
  WS02004411WS02004412 CONDUIT    937.41     0  03:03      1.24    1.33    0.92
  WS02004401WS02004402 CONDUIT    940.54     0  03:02      1.20    1.13    1.00
  WS02004413WS02003067 CONDUIT    938.07     0  03:04      1.55    0.40    0.72
  WS02004412WS02004413 CONDUIT    937.86     0  03:03      1.22    0.63    0.95
  WS02004410WS02004411 CONDUIT    937.75     0  03:03      1.23    1.28    0.94
  WS02004409WS02004410 CONDUIT    938.18     0  03:03      1.21    1.21    0.95
  WS02004407WS02004409 CONDUIT    939.38     0  03:02      1.67    0.33    0.68
  WS02004406WS02004407 CONDUIT    939.90     0  03:02      1.60    0.42    0.70
  WS02004405WS02004406 CONDUIT    940.14     0  03:02      1.20    1.85    1.00
  WS02004404WS02004405 CONDUIT    940.59     0  03:02      1.20    9.22    1.00
  WS02004403WS02004404 CONDUIT    940.03     0  03:02      1.20    0.68    1.00
  WS02004402WS02004403 CONDUIT    940.25     0  03:02      1.20    1.35    1.00
  WS02004139WS02001211 CONDUIT    385.89     0  03:14      0.90    0.49    0.64
  WS02004138WS02004139 CONDUIT    394.13     0  00:00      3.62    0.08    0.47
  WS02003067WS02003066 CONDUIT    938.53     0  03:04      1.65    0.30    0.50
  WS02001213WS02003059 CONDUIT    410.06     0  03:14      0.89    0.68    0.87
  WS02001212WS02001213 CONDUIT    404.32     0  03:15      1.32    0.62    0.56
  WS02001211WS02001212 CONDUIT    399.34     0  03:15      0.78    0.31    0.71
  WS02003072WS02003073 CONDUIT   1333.27     0  03:06      1.96    2.88    0.58
  WS02003069WS02003072 CONDUIT   1333.14     0  03:05      1.82    0.64    0.62
  WS02003060WS02003069 CONDUIT   1333.02     0  03:05      2.03    0.52    0.56
  WS02003059WS02003060 CONDUIT    416.94     0  03:14      0.95    0.27    0.77
  HS02004901HS02004770 CONDUIT     37.24     0  03:01      0.10    0.14    0.53
  HS02004876HS02004881 CONDUIT    127.64     0  03:01      1.21    1.36    0.15
  HS02004870HS02004876 CONDUIT    103.10     0  03:01      0.82    0.07    0.18
  HS02004842HS02004848 CONDUIT     16.84     0  03:01      0.07    0.01    0.33
  HS02004837HS02004842 CONDUIT     17.92     0  03:03      0.42    0.01    0.35
  HS02004830HS02004837 CONDUIT     64.65     0  03:01      0.67    0.06    0.14
  HS02004824HS02004830 CONDUIT     64.12     0  03:02      0.62    0.08    0.16
  HS02004817HS02004824 CONDUIT    123.86     0  03:01      0.31    0.06    0.58
  HS02004770HS02004777 CONDUIT    184.99     0  03:01      0.49    0.34    0.54
  HS02004799HS02004480 CONDUIT    444.38     0  03:01      1.07    0.56    0.60
  HS02004792HS02004799 CONDUIT    408.46     0  03:01      1.20    0.25    0.49
  HS02004788HS02004792 CONDUIT    232.94     0  03:02      1.28    0.15    0.26
  HS02004785HS02004788 CONDUIT    181.78     0  03:02      0.91    1.37    0.29
  HS02004777HS02004785 CONDUIT    182.06     0  03:01      0.57    0.22    0.45
  HS02004480HS02004478 CONDUIT    517.38     0  03:01      1.55    2.18    0.48
  HS02004479HS02004480 CONDUIT     77.35     0  03:02      0.30    0.07    0.57
  HS02004862HS02004870 CONDUIT     79.03     0  03:01      0.80    0.09    0.14
  HS02004848HS02004852 CONDUIT     37.84     0  03:01      0.53    0.04    0.10
  HS02004856HS02004862 CONDUIT     54.76     0  03:01      0.59    0.05    0.13
  HS02004852HS02004856 CONDUIT     37.76     0  03:02      0.34    0.04    0.16
  HS02004802HS02004478 CONDUIT    170.15     0  03:04      0.54    0.15    0.48
  HS02004478WS02006287 CONDUIT    677.64     0  03:02      2.11    0.19    0.36
  HS02004817HS02004807 CONDUIT    128.15     0  03:04      0.25    0.08    0.75
  HS02004807HS02004802 CONDUIT    165.30     0  03:04      0.46    0.32    0.53
  YS02001759YS02001757 CONDUIT    621.86     0  02:42      0.79    0.44    1.00
  YS02001762YS02001759 CONDUIT    316.22     0  02:42      0.40    0.36    1.00
  YS02001765YS02001762 CONDUIT    316.25     0  02:42      0.40    0.30    1.00
  YS02001770YS02001767 CONDUIT    315.25     0  02:42      0.40    1.25    1.00
  YS02001774YS02001770 CONDUIT    669.15     0  03:18      0.85    0.43    1.00
  YS02001779YS02001774 CONDUIT    669.03     0  03:18      0.85    0.34    1.00
  YS02001649YS02001757 CONDUIT    876.50     0  02:39      1.12    0.53    1.00
  YS02001767YS02001765 CONDUIT    315.95     0  02:42      0.40    0.40    1.00
  YS02006561YS02001783 CONDUIT   1151.68     0  03:00      2.29    0.60    1.00
  YS02001783YS02001784 CONDUIT   1151.67     0  03:00      2.29    1.59    1.00
  YS02001784YS02001785 CONDUIT   1152.45     0  03:00      2.29    2.68    1.00
  YS02001788YS02001790 CONDUIT   1164.99     0  02:59      2.73    0.86    1.00
  YS02001790YS02001791 CONDUIT   1277.77     0  02:58      3.42    1.39    1.00
  YS02001791YS02001793 CONDUIT   1233.37     0  02:55      6.51    0.53    1.00
  YS02001910YS02001907 CONDUIT    594.94     0  03:01      0.76    0.34    1.00
  YS02001786YS02001788 CONDUIT   1152.63     0  03:00      2.47    2.22    1.00
  YS02001915YS02001910 CONDUIT    594.76     0  03:01      0.76    0.30    1.00
  YS02001918YS02001915 CONDUIT    259.23     0  02:52      0.44    0.14    1.00
  YS02001923YS02001920 CONDUIT    256.06     0  02:52      0.75    0.11    1.00
  YS02001926YS02001923 CONDUIT    229.55     0  02:52      0.86    0.33    0.93
  YS02001929YS02001926 CONDUIT    199.95     0  03:01      0.92    0.09    0.82
  YS02001920YS02001918 CONDUIT    258.80     0  02:52      0.72    0.25    1.00
  YS02001629YS02163301 CONDUIT    216.68     0  02:33      0.28    0.27    1.00
  YS02001619YS02001622 CONDUIT    381.88     0  03:01      0.59    0.56    1.00
  YS02001622YS02001625 CONDUIT    381.54     0  03:01      0.49    0.20    1.00
  YS02001625YS02001629 CONDUIT    195.06     0  02:39      0.25    0.09    1.00
  YS02163301YS02001633 CONDUIT    217.36     0  02:33      0.28    0.20    1.00
  YS02163601YS02164001 CONDUIT    411.15     0  02:39      0.52    0.36    1.00
  YS02164001YS02001641 CONDUIT    411.53     0  02:39      0.52    0.56    1.00
  YS02001641YS02001644 CONDUIT    411.31     0  02:39      0.52    1.33    1.00
  YS02001647YS02001649 CONDUIT    777.26     0  03:20      0.99    0.41    1.00
  YS02006553YS02006556 CONDUIT    719.83     0  02:51      0.92    0.62    1.00
  YS02006556YS02006558 CONDUIT    719.56     0  02:51      0.92    0.57    1.00
  YSB6556YSB1171       CONDUIT     42.87     0  03:02      0.13    0.04    0.82
  YS02001907YS02006553 CONDUIT    719.55     0  02:51      0.80    0.85    1.00
  YS02006558YS02006561 CONDUIT   1151.43     0  03:01      4.07    2.54    1.00
  YS02001633YS02163601 CONDUIT    410.48     0  02:39      0.52    0.43    1.00
  YS02001644YS02001647 CONDUIT    777.26     0  03:20      0.99    0.46    1.00
  YS02001745YS02001748 CONDUIT    577.99     0  02:32      1.46    0.22    0.97
  YS02001748YS02001751 CONDUIT    443.34     0  03:01      1.03    0.22    1.00
  YS02001751YS02001754 CONDUIT    442.99     0  03:01      0.88    0.21    1.00
  YS02001754YS02001757 CONDUIT    442.54     0  03:01      0.56    0.18    1.00
  YS02001882YS02001884 CONDUIT     18.69     0  04:10      0.12    0.02    1.00
  YS02001884YS02001887 CONDUIT     29.83     0  04:10      0.08    0.04    1.00
  YS02001890YS02001895 CONDUIT    518.31     0  03:00      0.66    0.24    1.00
  YS02001895YS02001898 CONDUIT    518.35     0  03:00      0.66    0.90    1.00
  YS02001898YS02001901 CONDUIT    518.31     0  03:00      0.66    0.33    1.00
  YS02001901YS02001904 CONDUIT    518.57     0  03:00      0.66    0.80    1.00
  YS02001904YS02001907 CONDUIT    518.97     0  03:00      0.66    0.18    1.00
  YS02001887YS02001890 CONDUIT    681.65     0  03:01      0.87    1.17    1.00
  YS02001652YS02001649 CONDUIT    503.54     0  03:01      0.64    0.25    1.00
  YS02001655YS02001652 CONDUIT    503.23     0  03:01      0.94    0.24    1.00
  YS02001658YS02001655 CONDUIT    502.51     0  03:01      1.18    0.21    1.00
  YS02001661YS02001658 CONDUIT    600.54     0  02:29      1.52    0.24    1.00
  YS02001664YS02001661 CONDUIT    687.04     0  02:42      1.43    0.22    0.77
  YSB1154YSB6556       CONDUIT     43.28     0  03:01      0.18    0.08    0.73
  YSB1174YSB1171       CONDUIT     36.65     0  03:01      0.11    0.06    0.85
  YSB1171HS02004479    CONDUIT     75.48     0  03:02      0.54    0.05    0.68
  HS02004881HS02006253 CONDUIT    140.47     0  03:01      2.16    0.03    0.54
  YS02001793JiankangQianchi CONDUIT   1186.55     0  02:51     16.86    0.09    1.00
  YS02001757CaochengTiaoxuchi CONDUIT   1681.09     0  02:40      2.17    0.74    1.00
  WSF200WS02003060     CONDUIT    939.01     0  03:04      1.93    0.21    0.45
  1                    CONDUIT   1335.37     0  03:07      3.59    0.47    0.48
  CC-Pump-1            PUMP       200.00     0  05:40              1.00
  CC-Pump-2            PUMP       199.92     0  03:40              1.00
  JK-Pump-1            PUMP       300.00     0  02:30              1.00
  JK-Pump-2            PUMP       683.00     0  02:30              1.00
  XR-Pump-1            PUMP        95.00     0  00:00              1.00
  XR-Pump-2            PUMP        95.00     0  00:00              1.00
  XR-Pump-3            PUMP        95.00     0  00:00              1.00
  XR-Pump-4            PUMP        95.00     0  00:00              1.00
  
  
  ***************************
  Flow Classification Summary
  ***************************
  
  -------------------------------------------------------------------------------------
                      Adjusted    ---------- Fraction of Time in Flow Class ---------- 
                       /Actual         Up    Down  Sub   Sup   Up    Down  Norm  Inlet 
  Conduit               Length    Dry  Dry   Dry   Crit  Crit  Crit  Crit  Ltd   Ctrl  
  -------------------------------------------------------------------------------------
  WS02003066WSF200        1.00   0.01  0.03  0.00  0.00  0.96  0.00  0.00  0.69  0.00
  WS02006287WS02006284    1.00   0.03  0.02  0.00  0.63  0.33  0.00  0.00  0.65  0.00
  WS02006284WS02006280    1.00   0.04  0.00  0.00  0.00  0.00  0.00  0.96  0.00  0.00
  WS02006280WS02006229    1.00   0.04  0.00  0.00  0.01  0.02  0.00  0.93  0.00  0.00
  WS02006229WS02006228    1.00   0.00  0.00  0.00  1.00  0.00  0.00  0.00  0.00  0.00
  WS02006256WS02006235    1.00   0.01  0.00  0.00  0.99  0.00  0.00  0.00  0.00  0.00
  WS02006253WS02006251    1.00   0.01  0.02  0.00  0.96  0.00  0.01  0.00  0.00  0.00
  WS02006252WS02006251    1.00   0.19  0.00  0.00  0.05  0.00  0.76  0.00  0.00  0.00
  WS02006251WS02006249    1.00   0.00  0.00  0.00  1.00  0.00  0.00  0.00  0.30  0.00
  WS02006249WS02006248    1.00   0.00  0.00  0.00  0.87  0.00  0.12  0.00  0.00  0.00
  WS02006248WS02006247    1.00   0.01  0.00  0.00  0.98  0.00  0.00  0.01  0.18  0.00
  WS02006247WS02006245    1.00   0.01  0.00  0.00  0.98  0.00  0.00  0.02  0.00  0.00
  WS02006245WS02006243    1.00   0.01  0.00  0.00  0.93  0.00  0.00  0.06  0.01  0.00
  WS02006243WS02006242    1.00   0.01  0.00  0.00  0.99  0.00  0.00  0.00  0.23  0.00
  WS02006242WS02006240    1.00   0.01  0.00  0.00  0.99  0.00  0.00  0.00  0.00  0.00
  WS02006240WS02006239    1.00   0.01  0.00  0.00  0.95  0.00  0.00  0.04  0.01  0.00
  WS02006239WS02006238    1.00   0.01  0.00  0.00  0.99  0.00  0.00  0.00  0.08  0.00
  WS02006238WS02006235    1.00   0.01  0.00  0.00  0.99  0.00  0.00  0.00  0.00  0.00
  WS02006235WS02006234    1.00   0.01  0.00  0.00  0.95  0.00  0.04  0.00  0.00  0.00
  WS02006234WS02006232    1.00   0.01  0.00  0.00  0.99  0.00  0.00  0.00  0.04  0.00
  WS02006232WS02006231    1.00   0.01  0.00  0.00  0.99  0.00  0.00  0.00  0.00  0.00
  WS02006231WS02006230    1.00   0.01  0.00  0.00  0.63  0.00  0.36  0.00  0.00  0.00
  WS02006230WS02006229    1.00   0.00  0.00  0.00  0.99  0.00  0.00  0.01  0.00  0.00
  WS02006228WS02006109    1.00   0.00  0.00  0.00  1.00  0.00  0.00  0.00  0.00  0.00
  WS02006116WS02004401    1.00   0.02  0.00  0.00  0.98  0.00  0.00  0.00  0.00  0.00
  WS02006115WS02006116    1.00   0.02  0.00  0.00  0.98  0.00  0.00  0.00  0.00  0.00
  WS02006113WS02006111    1.00   0.02  0.00  0.00  0.04  0.95  0.00  0.00  0.20  0.00
  WS02006112WS02006115    1.00   0.02  0.00  0.00  0.98  0.00  0.00  0.00  0.00  0.00
  WS02006111WS02006112    1.00   0.02  0.00  0.00  0.98  0.00  0.00  0.00  0.85  0.00
  WS02006110WS02006113    1.00   0.00  0.01  0.00  0.98  0.00  0.00  0.00  0.00  0.00
  WS02006109WS02006110    1.00   0.00  0.00  0.00  0.99  0.00  0.00  0.00  0.00  0.00
  WS02004411WS02004412    1.00   0.03  0.00  0.00  0.97  0.00  0.00  0.00  0.00  0.00
  WS02004401WS02004402    1.00   0.02  0.00  0.00  0.98  0.00  0.00  0.00  0.00  0.00
  WS02004413WS02003067    1.00   0.03  0.00  0.00  0.00  0.00  0.97  0.00  0.00  0.00
  WS02004412WS02004413    1.00   0.03  0.00  0.00  0.97  0.00  0.00  0.00  0.00  0.00
  WS02004410WS02004411    1.00   0.03  0.00  0.00  0.97  0.00  0.00  0.00  0.00  0.00
  WS02004409WS02004410    1.00   0.03  0.00  0.00  0.97  0.00  0.00  0.00  0.00  0.00
  WS02004407WS02004409    1.00   0.03  0.00  0.00  0.97  0.00  0.00  0.00  0.91  0.00
  WS02004406WS02004407    1.00   0.00  0.03  0.00  0.97  0.00  0.00  0.00  0.00  0.00
  WS02004405WS02004406    1.00   0.00  0.00  0.00  1.00  0.00  0.00  0.00  0.04  0.00
  WS02004404WS02004405    1.00   0.00  0.00  0.00  1.00  0.00  0.00  0.00  0.00  0.00
  WS02004403WS02004404    1.00   0.00  0.02  0.00  0.98  0.00  0.00  0.00  0.00  0.00
  WS02004402WS02004403    1.00   0.02  0.00  0.00  0.98  0.00  0.00  0.00  0.00  0.00
  WS02004139WS02001211    1.00   0.00  0.00  0.00  1.00  0.00  0.00  0.00  0.00  0.00
  WS02004138WS02004139    1.00   0.00  0.00  0.00  1.00  0.00  0.00  0.00  1.00  0.00
  WS02003067WS02003066    1.00   0.03  0.00  0.00  0.96  0.00  0.00  0.00  0.00  0.00
  WS02001213WS02003059    1.00   0.00  0.00  0.00  1.00  0.00  0.00  0.00  0.00  0.00
  WS02001212WS02001213    1.00   0.00  0.00  0.00  0.92  0.00  0.08  0.00  0.00  0.00
  WS02001211WS02001212    1.00   0.00  0.00  0.00  1.00  0.00  0.00  0.00  0.00  0.00
  WS02003072WS02003073    1.00   0.00  0.00  0.00  0.00  0.00  0.00  1.00  0.00  0.00
  WS02003069WS02003072    1.00   0.00  0.00  0.00  1.00  0.00  0.00  0.00  0.11  0.00
  WS02003060WS02003069    1.00   0.00  0.00  0.00  0.99  0.01  0.00  0.00  0.08  0.00
  WS02003059WS02003060    1.00   0.00  0.00  0.00  1.00  0.00  0.00  0.00  0.00  0.00
  HS02004901HS02004770    1.00   0.04  0.00  0.00  0.96  0.00  0.00  0.00  0.00  0.00
  HS02004876HS02004881    1.00   0.01  0.00  0.00  0.91  0.09  0.00  0.00  0.00  0.00
  HS02004870HS02004876    1.00   0.00  0.00  0.00  1.00  0.00  0.00  0.00  0.95  0.00
  HS02004842HS02004848    1.00   0.00  0.04  0.00  0.96  0.00  0.00  0.00  0.54  0.00
  HS02004837HS02004842    1.00   0.00  0.00  0.00  1.00  0.00  0.00  0.00  0.11  0.00
  HS02004830HS02004837    1.00   0.00  0.00  0.00  1.00  0.00  0.00  0.00  0.99  0.00
  HS02004824HS02004830    1.00   0.00  0.00  0.00  1.00  0.00  0.00  0.00  0.01  0.00
  HS02004817HS02004824    1.00   0.00  0.00  0.00  1.00  0.00  0.00  0.00  0.97  0.00
  HS02004770HS02004777    1.00   0.00  0.04  0.00  0.96  0.00  0.00  0.00  0.03  0.00
  HS02004799HS02004480    1.00   0.00  0.01  0.00  0.95  0.00  0.04  0.00  0.00  0.00
  HS02004792HS02004799    1.00   0.00  0.00  0.00  1.00  0.00  0.00  0.00  0.98  0.00
  HS02004788HS02004792    1.00   0.00  0.00  0.00  1.00  0.00  0.00  0.00  0.98  0.00
  HS02004785HS02004788    1.00   0.00  0.00  0.00  1.00  0.00  0.00  0.00  0.00  0.00
  HS02004777HS02004785    1.00   0.00  0.00  0.00  1.00  0.00  0.00  0.00  0.12  0.00
  HS02004480HS02004478    1.00   0.04  0.00  0.00  0.69  0.00  0.00  0.27  0.00  0.00
  HS02004479HS02004480    1.00   0.01  0.00  0.00  0.99  0.00  0.00  0.00  0.12  0.00
  HS02004862HS02004870    1.00   0.00  0.00  0.00  1.00  0.00  0.00  0.00  0.04  0.00
  HS02004848HS02004852    1.00   0.04  0.00  0.00  0.96  0.00  0.00  0.00  0.64  0.00
  HS02004856HS02004862    1.00   0.00  0.05  0.00  0.95  0.00  0.00  0.00  0.83  0.00
  HS02004852HS02004856    1.00   0.04  0.00  0.00  0.96  0.00  0.00  0.00  0.81  0.00
  HS02004802HS02004478    1.00   0.04  0.00  0.00  0.96  0.00  0.00  0.00  0.02  0.00
  HS02004478WS02006287    1.00   0.05  0.00  0.00  0.76  0.19  0.00  0.00  0.65  0.00
  HS02004817HS02004807    1.00   0.00  0.04  0.00  0.96  0.00  0.00  0.00  0.01  0.00
  HS02004807HS02004802    1.00   0.04  0.00  0.00  0.96  0.00  0.00  0.00  0.00  0.00
  YS02001759YS02001757    1.00   0.00  0.00  0.00  1.00  0.00  0.00  0.00  0.16  0.00
  YS02001762YS02001759    1.00   0.00  0.00  0.00  1.00  0.00  0.00  0.00  0.03  0.00
  YS02001765YS02001762    1.00   0.00  0.00  0.00  1.00  0.00  0.00  0.00  0.14  0.00
  YS02001770YS02001767    1.00   0.00  0.00  0.00  1.00  0.00  0.00  0.00  0.00  0.00
  YS02001774YS02001770    1.00   0.00  0.04  0.00  0.96  0.00  0.00  0.00  0.03  0.00
  YS02001779YS02001774    1.00   0.00  0.00  0.00  1.00  0.00  0.00  0.00  0.19  0.00
  YS02001649YS02001757    1.00   0.00  0.00  0.00  1.00  0.00  0.00  0.00  0.16  0.00
  YS02001767YS02001765    1.00   0.00  0.00  0.00  1.00  0.00  0.00  0.00  0.00  0.00
  YS02006561YS02001783    1.00   0.06  0.00  0.00  0.36  0.59  0.00  0.00  0.49  0.00
  YS02001783YS02001784    1.00   0.00  0.06  0.00  0.94  0.00  0.00  0.00  0.00  0.00
  YS02001784YS02001785    1.00   0.00  0.00  0.00  1.00  0.00  0.00  0.00  0.18  0.00
  YS02001788YS02001790    1.00   0.00  0.00  0.00  0.38  0.62  0.00  0.00  0.37  0.00
  YS02001790YS02001791    1.00   0.00  0.00  0.00  0.33  0.67  0.00  0.00  0.45  0.00
  YS02001791YS02001793    1.00   0.00  0.00  0.00  0.36  0.64  0.00  0.00  0.03  0.00
  YS02001910YS02001907    1.00   0.00  0.00  0.00  0.99  0.00  0.00  0.01  0.12  0.00
  YS02001786YS02001788    1.00   0.00  0.00  0.00  0.39  0.61  0.00  0.00  0.00  0.00
  YS02001915YS02001910    1.00   0.00  0.00  0.00  0.99  0.01  0.00  0.00  0.16  0.00
  YS02001918YS02001915    1.00   0.00  0.00  0.00  0.99  0.00  0.00  0.00  0.53  0.00
  YS02001923YS02001920    1.00   0.00  0.00  0.00  1.00  0.00  0.00  0.00  0.82  0.00
  YS02001926YS02001923    1.00   0.00  0.02  0.00  0.15  0.00  0.83  0.00  0.00  0.00
  YS02001929YS02001926    1.00   0.00  0.04  0.00  0.96  0.00  0.00  0.00  0.75  0.00
  YS02001920YS02001918    1.00   0.00  0.00  0.00  1.00  0.00  0.00  0.00  0.00  0.00
  YS02001629YS02163301    1.00   0.05  0.00  0.00  0.95  0.00  0.00  0.00  0.00  0.00
  YS02001619YS02001622    1.00   0.04  0.00  0.00  0.96  0.00  0.00  0.00  0.00  0.00
  YS02001622YS02001625    1.00   0.04  0.00  0.00  0.96  0.00  0.00  0.00  0.05  0.00
  YS02001625YS02001629    1.00   0.04  0.02  0.00  0.92  0.00  0.02  0.00  0.00  0.00
  YS02163301YS02001633    1.00   0.00  0.05  0.00  0.95  0.00  0.00  0.00  0.00  0.00
  YS02163601YS02164001    1.00   0.00  0.03  0.00  0.97  0.00  0.00  0.00  0.00  0.00
  YS02164001YS02001641    1.00   0.00  0.02  0.00  0.97  0.00  0.00  0.00  0.06  0.00
  YS02001641YS02001644    1.00   0.00  0.00  0.00  1.00  0.00  0.00  0.00  0.00  0.00
  YS02001647YS02001649    1.00   0.00  0.05  0.00  0.95  0.00  0.00  0.00  0.01  0.00
  YS02006553YS02006556    1.00   0.00  0.00  0.00  1.00  0.00  0.00  0.00  0.03  0.00
  YS02006556YS02006558    1.00   0.00  0.00  0.00  1.00  0.00  0.00  0.00  0.00  0.00
  YSB6556YSB1171          1.00   0.01  0.03  0.00  0.96  0.00  0.00  0.00  0.00  0.00
  YS02001907YS02006553    1.00   0.00  0.01  0.00  0.99  0.00  0.00  0.00  0.00  0.00
  YS02006558YS02006561    1.00   0.06  0.00  0.00  0.14  0.80  0.00  0.00  0.47  0.00
  YS02001633YS02163601    1.00   0.00  0.00  0.00  1.00  0.00  0.00  0.00  0.15  0.00
  YS02001644YS02001647    1.00   0.00  0.05  0.00  0.95  0.00  0.00  0.00  0.00  0.00
  YS02001745YS02001748    1.00   0.00  0.00  0.00  0.90  0.01  0.00  0.10  0.04  0.00
  YS02001748YS02001751    1.00   0.00  0.00  0.00  0.97  0.03  0.00  0.00  0.15  0.00
  YS02001751YS02001754    1.00   0.00  0.00  0.00  0.94  0.00  0.00  0.06  0.02  0.00
  YS02001754YS02001757    1.00   0.00  0.00  0.00  1.00  0.00  0.00  0.00  0.18  0.00
  YS02001882YS02001884    1.00   0.05  0.00  0.00  0.95  0.00  0.00  0.00  0.00  0.00
  YS02001884YS02001887    1.00   0.02  0.02  0.00  0.96  0.00  0.00  0.00  0.00  0.00
  YS02001890YS02001895    1.00   0.00  0.05  0.00  0.95  0.00  0.00  0.00  0.00  0.00
  YS02001895YS02001898    1.00   0.05  0.00  0.00  0.94  0.00  0.01  0.00  0.00  0.00
  YS02001898YS02001901    1.00   0.05  0.00  0.00  0.95  0.00  0.00  0.00  0.01  0.00
  YS02001901YS02001904    1.00   0.05  0.00  0.00  0.95  0.00  0.00  0.00  0.00  0.00
  YS02001904YS02001907    1.00   0.00  0.05  0.00  0.95  0.00  0.00  0.00  0.00  0.00
  YS02001887YS02001890    1.00   0.00  0.00  0.00  0.99  0.00  0.01  0.00  0.00  0.00
  YS02001652YS02001649    1.00   0.00  0.00  0.00  1.00  0.00  0.00  0.00  0.17  0.00
  YS02001655YS02001652    1.00   0.00  0.00  0.00  0.94  0.00  0.00  0.06  0.02  0.00
  YS02001658YS02001655    1.00   0.00  0.04  0.00  0.92  0.03  0.00  0.00  0.10  0.00
  YS02001661YS02001658    1.00   0.04  0.00  0.00  0.90  0.06  0.00  0.00  0.11  0.00
  YS02001664YS02001661    1.00   0.04  0.00  0.00  0.91  0.05  0.00  0.00  0.20  0.00
  YSB1154YSB6556          1.00   0.04  0.00  0.00  0.96  0.00  0.00  0.00  0.02  0.00
  YSB1174YSB1171          1.00   0.01  0.02  0.00  0.97  0.00  0.00  0.00  0.00  0.00
  YSB1171HS02004479       1.00   0.01  0.00  0.00  0.99  0.00  0.00  0.00  0.10  0.00
  HS02004881HS02006253    1.00   0.01  0.00  0.00  0.52  0.04  0.00  0.43  0.36  0.00
  YS02001793JiankangQianchi    1.00   0.00  0.00  0.00  0.71  0.29  0.00  0.00  0.45  0.00
  YS02001757CaochengTiaoxuchi    1.00   0.00  0.08  0.00  0.92  0.00  0.00  0.00  0.00  0.00
  WSF200WS02003060        1.00   0.00  0.01  0.00  0.98  0.02  0.00  0.00  0.54  0.00
  1                       1.00   0.00  0.00  0.00  0.00  1.00  0.00  0.00  0.48  0.00
  
  
  *************************
  Conduit Surcharge Summary
  *************************
  
  ----------------------------------------------------------------------------
                                                           Hours        Hours 
                         --------- Hours Full --------   Above Full   Capacity
  Conduit                Both Ends  Upstream  Dnstream   Normal Flow   Limited
  ----------------------------------------------------------------------------
  WS02006229WS02006228        2.47      2.59      2.47      4.27         2.47
  WS02006256WS02006235        5.66      5.66      6.92      4.46         0.01
  WS02006253WS02006251        0.66      0.66      0.69      0.01         0.01
  WS02006252WS02006251        0.57      0.57      1.09      0.80         0.01
  WS02006251WS02006249        0.67      0.67      0.71      0.34         0.27
  WS02006249WS02006248        0.68      0.68      0.71      1.78         0.01
  WS02006248WS02006247        0.70      0.70      0.79      0.01         0.01
  WS02006247WS02006245        0.78      0.81      0.78      2.37         0.66
  WS02006245WS02006243        0.80      0.81      0.90      0.18         0.12
  WS02006243WS02006242        0.94      0.94      1.32      0.01         0.01
  WS02006242WS02006240        1.22      1.22      1.44      0.74         0.01
  WS02006240WS02006239        1.26      1.27      1.40      0.33         0.16
  WS02006239WS02006238        1.64      1.65      1.92      0.37         0.22
[...]
  YS02001770YS02001767        5.69      5.69      5.69      0.48         0.60
  YS02001774YS02001770        5.68      5.68      5.74      0.01         0.01
  YS02001779YS02001774        5.56      5.56      5.74      0.01         0.01
  YS02001649YS02001757        5.76      5.76      5.86      0.01         0.01
  YS02001767YS02001765        5.69      5.69      5.72      0.01         0.01
  YS02006561YS02001783        0.85      0.85      1.33      0.01         0.01
  YS02001783YS02001784        1.29      1.33      1.32      1.58         1.18
  YS02001784YS02001785        1.11      1.32      1.11      2.48         1.11
  YS02001788YS02001790        0.81      0.81      1.74      0.01         0.01
  YS02001790YS02001791        1.73      1.74      1.83      1.12         0.79
  YS02001791YS02001793        1.83      1.83      2.28      0.01         0.01
  YS02001910YS02001907        1.24      1.24      1.89      0.01         0.01
  YS02001786YS02001788        0.80      1.11      0.81      2.07         0.80
  YS02001915YS02001910        1.04      1.04      1.24      0.01         0.01
  YS02001918YS02001915        0.85      0.85      1.04      0.01         0.01
  YS02001923YS02001920        0.71      0.71      0.88      0.01         0.01
  YS02001920YS02001918        0.85      0.85      0.88      0.01         0.01
  YS02001629YS02163301        5.67      5.67      5.68      0.01         0.01
  YS02001619YS02001622        5.37      5.37      5.41      0.01         0.01
  YS02001622YS02001625        5.41      5.41      5.64      0.01         0.01
  YS02001625YS02001629        5.38      5.38      5.64      0.01         0.01
  YS02163301YS02001633        5.68      5.68      5.72      0.01         0.01
  YS02163601YS02164001        5.72      5.72      5.75      0.01         0.01
  YS02164001YS02001641        5.72      5.72      5.73      0.01         0.03
  YS02001641YS02001644        5.73      5.73      5.73      1.72         2.01
  YS02001647YS02001649        5.62      5.62      5.76      0.01         0.01
  YS02006553YS02006556        1.46      1.46      1.98      0.01         0.01
  YS02006556YS02006558        1.69      1.69      2.07      0.01         0.01
  YSB6556YSB1171              0.01      0.01      0.07      0.01         0.01
  YS02001907YS02006553        2.55      2.55      2.77      0.01         0.01
  YS02006558YS02006561        0.97      1.42      0.97      2.34         0.97
  YS02001633YS02163601        5.71      5.71      5.75      0.01         0.01
  YS02001644YS02001647        5.62      5.62      5.73      0.01         0.01
  YS02001745YS02001748        0.01      0.01      5.22      0.01         0.01
  YS02001748YS02001751        5.27      5.27      5.37      0.01         0.01
  YS02001751YS02001754        5.37      5.37      5.58      0.01         0.01
  YS02001754YS02001757        5.62      5.62      5.86      0.01         0.01
  YS02001882YS02001884        1.06      1.06      1.09      0.01         0.01
  YS02001884YS02001887        1.14      1.14      1.17      0.01         0.01
  YS02001890YS02001895        1.03      1.03      1.26      0.01         0.01
  YS02001895YS02001898        1.02      1.02      1.03      0.01         0.01
  YS02001898YS02001901        1.04      1.04      1.13      0.01         0.01
  YS02001901YS02001904        1.10      1.10      1.13      0.01         0.01
  YS02001904YS02001907        1.10      1.10      2.01      0.01         0.01
  YS02001887YS02001890        1.19      1.19      1.22      0.16         0.01
  YS02001652YS02001649        5.63      5.63      5.76      0.01         0.01
  YS02001655YS02001652        5.39      5.39      5.61      0.01         0.01
  YS02001658YS02001655        5.25      5.25      5.39      0.01         0.01
  YS02001661YS02001658        0.06      0.06      5.25      0.01         0.01
  YS02001664YS02001661        0.01      0.01      1.31      0.01         0.01
  HS02004881HS02006253        0.01      0.01      0.36      0.01         0.01
  YS02001793JiankangQianchi        2.16      2.16      4.71      0.01         0.01
  YS02001757CaochengTiaoxuchi        5.12      5.12      5.86      0.01         0.01
  
  
  ***************
  Pumping Summary
  ***************
  
  ---------------------------------------------------------------------------------------------------------
                                                  Min       Avg       Max     Total     Power    % Time Off
                        Percent   Number of      Flow      Flow      Flow    Volume     Usage    Pump Curve
  Pump                 Utilized   Start-Ups       LPS       LPS       LPS  10^6 ltr     Kw-hr    Low   High
  ---------------------------------------------------------------------------------------------------------
  CC-Pump-1               44.67           6      0.00    149.86    200.00     1.740      1.48    0.0    0.0
  CC-Pump-2               21.27           4      0.00     88.87    199.92     0.600      0.70    0.0    0.0
  JK-Pump-1               61.71           5      0.00    213.85    300.00     3.745     54.92    0.0    0.0
  JK-Pump-2               51.07           3      0.00    401.89    683.00     6.173     83.67    0.0   97.5
  XR-Pump-1              100.00           1      0.00     95.00     95.00     2.679     27.14    0.0    0.0
  XR-Pump-2               97.88           2      0.00     92.21     95.00     2.451     22.30    0.0    0.0
  XR-Pump-3               93.62           4      0.00     92.23     95.00     2.337     19.78    0.0    0.0
  XR-Pump-4               93.62           4      0.00     92.23     95.00     2.337     19.78    0.0    0.0
  
  
  ***************************
  Link Pollutant Load Summary
  ***************************
  
  ------------------------------------------------------------------------------------------
                                 COD            SS            TN            TP         NH4-N
  Link                            kg            kg            kg            kg            kg
  ------------------------------------------------------------------------------------------
  WS02003066WSF200           763.643      1431.375        20.430         1.817        10.820
  WS02006287WS02006284       319.460       608.071        10.314         1.015         5.678
  WS02006284WS02006280       319.938       608.854        10.359         1.021         5.707
  WS02006280WS02006229       319.892       608.757        10.357         1.020         5.705
  WS02006229WS02006228       770.545      1443.960        20.124         1.761        10.591
  WS02006256WS02006235       228.354       422.208         5.040         0.393         2.550
  WS02006253WS02006251        61.349       120.722         1.346         0.101         0.667
  WS02006252WS02006251       202.781       370.710         4.257         0.311         2.099
  WS02006251WS02006249       257.010       478.551         5.471         0.403         2.704
  WS02006249WS02006248       232.311       430.992         4.962         0.366         2.455
  WS02006248WS02006247       232.045       430.510         4.960         0.366         2.455
  WS02006247WS02006245       231.518       429.560         4.949         0.365         2.449
  WS02006245WS02006243       230.888       428.472         4.933         0.364         2.441
  WS02006243WS02006242       230.337       427.488         4.924         0.364         2.437
  WS02006242WS02006240       229.591       426.152         4.900         0.361         2.424
  WS02006240WS02006239       230.402       427.582         4.922         0.363         2.435
  WS02006239WS02006238       232.393       430.865         4.990         0.370         2.473
  WS02006238WS02006235       233.883       433.296         5.039         0.375         2.500
  WS02006235WS02006234       455.041       842.974         9.879         0.750         4.944
  WS02006234WS02006232       454.353       841.705         9.868         0.749         4.939
  WS02006232WS02006231       453.475       840.119         9.847         0.748         4.929
  WS02006231WS02006230       452.813       838.916         9.834         0.747         4.922
  WS02006230WS02006229       451.691       836.975         9.803         0.744         4.906
  WS02006228WS02006109       769.244      1441.616        20.087         1.758        10.571
  WS02006116WS02004401       780.204      1461.323        20.818         1.848        11.017
  WS02006115WS02006116       781.953      1464.448        20.865         1.852        11.042
  WS02006113WS02006111       774.027      1448.557        20.769         1.846        11.006
  WS02006112WS02006115       783.509      1467.193        20.918         1.857        11.071
  WS02006111WS02006112       773.508      1447.707        20.753         1.845        10.997
  WS02006110WS02006113       774.767      1449.902        20.796         1.849        11.021
  WS02006109WS02006110       776.387      1452.769        20.868         1.857        11.062
  WS02004411WS02004412       767.439      1438.105        20.556         1.830        10.889
  WS02004401WS02004402       778.566      1458.413        20.767         1.843        10.989
  WS02004413WS02003067       764.506      1432.987        20.451         1.819        10.830
  WS02004412WS02004413       765.964      1435.486        20.513         1.826        10.866
  WS02004410WS02004411       768.783      1440.527        20.592         1.833        10.909
  WS02004409WS02004410       770.114      1442.904        20.631         1.836        10.929
  WS02004407WS02004409       771.367      1445.177        20.661         1.839        10.945
  WS02004406WS02004407       771.885      1446.170        20.667         1.839        10.947
  WS02004405WS02004406       774.041      1450.004        20.747         1.847        10.992
  WS02004404WS02004405       775.739      1453.147        20.762         1.846        10.996
  WS02004403WS02004404       775.561      1453.045        20.681         1.835        10.943
  WS02004402WS02004403       776.915      1455.450        20.723         1.839        10.966
  WS02004139WS02001211      1370.352      2275.684       111.174        13.570        68.526
  WS02004138WS02004139      1376.578      2286.089       111.654        13.628        68.821
  WS02003067WS02003066       763.832      1431.712        20.437         1.818        10.824
  WS02001213WS02003059      1403.733      2328.133       114.635        14.006        70.701
  WS02001212WS02001213      1412.708      2343.012       115.361        14.095        71.148
  WS02001211WS02001212      1414.766      2346.378       115.537        14.117        71.258
  WS02003072WS02003073      2267.472      3918.432       145.051        17.078        87.778
  WS02003069WS02003072      2272.326      3926.332       145.453        17.127        88.027
  WS02003060WS02003069      2274.949      3930.870       145.599        17.144        88.113
  WS02003059WS02003060      1400.718      2323.023       114.422        13.981        70.572
  HS02004901HS02004770        13.094        25.473         0.248         0.019         0.116
  HS02004876HS02004881        45.513        90.343         0.999         0.073         0.491
  HS02004870HS02004876        34.381        68.101         0.798         0.060         0.395
  HS02004842HS02004848         6.456        12.343         0.134         0.009         0.062
  HS02004837HS02004842        11.054        19.632         0.603         0.068         0.356
  HS02004830HS02004837        70.294       122.721         4.643         0.552         2.826
  HS02004824HS02004830        71.065       123.975         4.715         0.561         2.871
  HS02004817HS02004824        97.159       176.399         5.254         0.596         3.134
  HS02004770HS02004777        49.661        97.710         1.021         0.069         0.472
  HS02004799HS02004480       162.316       310.820         4.263         0.379         2.209
  HS02004792HS02004799       147.268       280.109         4.028         0.367         2.105
  HS02004788HS02004792        82.813       157.678         2.666         0.255         1.440
  HS02004785HS02004788        51.118       100.043         1.172         0.089         0.567
  HS02004777HS02004785        50.443        98.938         1.112         0.081         0.530
  HS02004480HS02004478       204.807       395.156         4.971         0.429         2.543
  HS02004479HS02004480        46.126        90.110         1.037         0.091         0.538
  HS02004862HS02004870        25.798        50.337         0.628         0.050         0.314
  HS02004848HS02004852        10.251        19.884         0.210         0.014         0.097
  HS02004856HS02004862        17.524        34.748         0.350         0.023         0.164
  HS02004852HS02004856        10.255        19.889         0.210         0.014         0.097
  HS02004802HS02004478       115.332       214.034         5.397         0.592         3.168
  HS02004478WS02006287       319.670       608.437        10.330         1.017         5.688
  HS02004817HS02004807        95.853       174.303         5.129         0.580         3.057
  HS02004807HS02004802       115.591       214.439         5.429         0.596         3.189
  YS02001759YS02001757       311.258       572.366         6.194         0.432         3.027
  YS02001762YS02001759       173.339       319.478         3.601         0.255         1.777
  YS02001765YS02001762       174.912       323.281         3.649         0.259         1.804
  YS02001770YS02001767       178.591       332.603         3.576         0.242         1.742
  YS02001774YS02001770       304.376       587.933         5.889         0.393         2.849
  YS02001779YS02001774       303.804       586.822         5.977         0.406         2.910
  YS02001649YS02001757       393.828       712.563         7.948         0.545         3.830
  YS02001767YS02001765       177.083       328.206         3.706         0.264         1.834
  YS02006561YS02001783      1043.013      1935.411        21.817         1.627        10.853
  YS02001783YS02001784      1042.896      1935.228        21.813         1.627        10.850
  YS02001784YS02001785      1050.254      1947.019        22.527         1.716        11.297
  YS02001788YS02001790      1050.883      1948.061        22.600         1.726        11.343
  YS02001790YS02001791      1051.933      1949.807        22.700         1.738        11.406
  YS02001791YS02001793      1051.985      1949.898        22.698         1.738        11.404
  YS02001910YS02001907       391.123       721.418         9.382         0.717         4.807
  YS02001786YS02001788      1050.482      1947.426        22.555         1.720        11.315
  YS02001915YS02001910       391.173       721.498         9.334         0.710         4.774
  YS02001918YS02001915       186.083       328.259         5.120         0.466         2.757
  YS02001923YS02001920       165.505       294.971         3.163         0.222         1.535
  YS02001926YS02001923       164.466       293.228         3.097         0.214         1.495
  YS02001929YS02001926       164.242       292.856         3.066         0.210         1.475
  YS02001920YS02001918       185.256       326.558         5.074         0.461         2.730
  YS02001629YS02163301        96.120       169.966         2.029         0.131         0.946
  YS02001619YS02001622       175.877       321.139         3.602         0.236         1.684
  YS02001622YS02001625       174.685       319.245         3.573         0.234         1.671
  YS02001625YS02001629        97.197       171.724         2.053         0.132         0.957
  YS02163301YS02001633        96.506       170.884         2.032         0.132         0.949
  YS02163601YS02164001       405.705       733.115         7.898         0.562         3.783
  YS02164001YS02001641       405.184       732.232         7.878         0.560         3.772
  YS02001641YS02001644       405.248       732.260         7.874         0.560         3.769
  YS02001647YS02001649       499.787       916.256         9.969         0.689         4.770
  YS02006553YS02006556       709.082      1305.833        15.191         1.161         7.639
  YS02006556YS02006558       709.041      1305.740        15.162         1.157         7.620
  YSB6556YSB1171              26.520        51.965         0.537         0.045         0.271
  YS02001907YS02006553       709.159      1306.004        15.198         1.162         7.644
  YS02006558YS02006561      1043.042      1935.471        21.817         1.627        10.852
  YS02001633YS02163601       406.420       734.228         7.879         0.558         3.767
  YS02001644YS02001647       505.406       926.472        10.056         0.695         4.810
  YS02001745YS02001748       250.273       467.856         5.521         0.383         2.747
  YS02001748YS02001751       248.192       463.934         5.554         0.392         2.777
  YS02001751YS02001754       247.229       462.350         5.537         0.391         2.770
  YS02001754YS02001757       247.974       463.461         5.701         0.413         2.876
  YS02001882YS02001884         2.582         4.449         0.053         0.004         0.026
  YS02001884YS02001887         6.987        12.386         0.138         0.011         0.068
  YS02001890YS02001895       451.158       846.819         8.305         0.625         4.051
  YS02001895YS02001898       451.011       846.637         8.299         0.624         4.048
  YS02001898YS02001901       450.831       846.328         8.295         0.624         4.046
  YS02001901YS02001904       450.677       846.111         8.301         0.625         4.050
  YS02001904YS02001907       450.909       846.466         8.354         0.632         4.085
  YS02001887YS02001890       468.400       881.013         8.648         0.653         4.224
  YS02001652YS02001649       204.975       380.660         4.129         0.297         1.936
  YS02001655YS02001652       205.508       381.531         4.143         0.298         1.943
  YS02001658YS02001655       204.958       380.660         4.055         0.286         1.886
  YS02001661YS02001658       208.309       386.655         4.123         0.291         1.917
  YS02001664YS02001661       219.335       404.347         4.379         0.308         2.034
  YSB1154YSB6556              26.084        51.270         0.486         0.038         0.239
  YSB1174YSB1171              18.020        35.560         0.361         0.029         0.181
  YSB1171HS02004479           46.091        90.055         1.040         0.092         0.540
  HS02004881HS02006253        51.392       102.324         1.106         0.080         0.543
  YS02001793JiankangQianchi      1051.792      1949.465        22.675         1.735        11.390
  YS02001757CaochengTiaoxuchi       537.618       976.570        11.350         0.821         5.592
  WSF200WS02003060           763.255      1430.623        20.425         1.817        10.817
  1                         2273.413      3926.928       145.850        17.181        88.287
  CC-Pump-1                  150.785       275.771         3.161         0.230         1.558
  CC-Pump-2                   51.913        94.797         1.091         0.080         0.538
  JK-Pump-1                  266.799       495.140         5.786         0.446         2.914
  JK-Pump-2                  543.923      1020.075        11.097         0.821         5.493
  XR-Pump-1                  392.728       649.323        32.542         3.985        20.095
  XR-Pump-2                  344.032       571.392        27.889         3.404        17.189
  XR-Pump-3                  321.758       535.743        25.764         3.138        15.862
  XR-Pump-4                  321.758       535.743        25.764         3.138        15.862
  

  Analysis begun on:  Thu Jul 15 22:58:24 2021
  Analysis ended on:  Thu Jul 15 22:58:26 2021
  Total elapsed time: 00:00:02