
  EPA STORM WATER MANAGEMENT MODEL - VERSION 5.1 (Build 5.3.0.dev0)
  --------------------------------------------------------------

  WARNING 04: minimum elevation drop used for Conduit WS02004404WS02004405
  WARNING 03: negative offset ignored for Link YS02001904YS02001907
  
  *********************************************************
  NOTE: The summary statistics displayed in this report are
  based on results found at every computational time step,  
  not just on results from each reporting time step.
  *********************************************************
  
  ****************
  Analysis Options
  ****************
  Flow Units ............... LPS
  Process Models:
    Rainfall/Runoff ........ YES
    RDII ................... NO
    Snowmelt ............... NO
    Groundwater ............ NO
    Flow Routing ........... YES
    Ponding Allowed ........ NO
    Water Quality .......... YES
  Infiltration Method ...... HORTON
  Flow Routing Method ...... DYNWAVE
  Surcharge Method ......... EXTRAN
  Starting Date ............ 08/28/2015 08:00:00
  Ending Date .............. 08/28/2015 15:50:00
  Antecedent Dry Days ...... 8.0
  Report Time Step ......... 00:01:00
  Wet Time Step ............ 00:01:00
  Dry Time Step ............ 00:01:00
  Routing Time Step ........ 5.00 sec
  Variable Time Step ....... YES
  Maximum Trials ........... 8
  Number of Threads ........ 4
  Head Tolerance ........... 0.001500 m
  
  
  **************************        Volume         Depth
  Runoff Quantity Continuity     hectare-m            mm
  **************************     ---------       -------
  Total Precipitation ......         6.144        13.452
  Evaporation Loss .........         0.000         0.000
  Infiltration Loss ........         1.064         2.328
  Surface Runoff ...........         4.147         9.079
  Final Storage ............         0.935         2.047
  Continuity Error (%) .....        -0.020
  
  
  **************************           COD            SS            TN            TP         NH4-N
  Runoff Quality Continuity             kg            kg            kg            kg            kg
  **************************    ----------    ----------    ----------    ----------    ----------
  Initial Buildup ..........     41378.656     70582.865      1804.177       168.684      1032.807
  Surface Buildup ..........        21.799        40.924         2.400         0.218         1.395
  Wet Deposition ...........         0.000         0.000         0.000         0.000         0.000
  Sweeping Removal .........         0.000         0.000         0.000         0.000         0.000
  Infiltration Loss ........        97.311       184.943         1.849         0.130         0.881
  BMP Removal ..............         0.000         0.000         0.000         0.000         0.000
  Surface Runoff ...........      3769.819      7064.251        72.781         4.964        34.599
  Remaining Buildup ........     37531.916     63371.884      1731.919       163.806       998.709
  Continuity Error (%) .....         0.003         0.004         0.002         0.001         0.001
  
  
  **************************        Volume        Volume
  Flow Routing Continuity        hectare-m      10^6 ltr
  **************************     ---------     ---------
  Dry Weather Inflow .......         0.616         6.165
  Wet Weather Inflow .......         4.145        41.451
  Groundwater Inflow .......         0.000         0.000
  RDII Inflow ..............         0.000         0.000
  External Inflow ..........         0.102         1.024
  External Outflow .........         1.926        19.262
  Flooding Loss ............         2.475        24.748
  Evaporation Loss .........         0.000         0.000
  Exfiltration Loss ........         0.000         0.000
  Initial Stored Volume ....         0.076         0.761
  Final Stored Volume ......         0.643         6.431
  Continuity Error (%) .....        -2.107
  
  
  **************************           COD            SS            TN            TP         NH4-N
  Quality Routing Continuity            kg            kg            kg            kg            kg
  **************************    ----------    ----------    ----------    ----------    ----------
  Dry Weather Inflow .......      1541.201      2465.922       147.955        18.494        92.472
  Wet Weather Inflow .......      3768.972      7062.812        72.763         4.963        34.591
  Groundwater Inflow .......         0.000         0.000         0.000         0.000         0.000
  RDII Inflow ..............         0.000         0.000         0.000         0.000         0.000
  External Inflow ..........       183.418       293.469        17.608         2.201        11.005
  External Outflow .........      2335.592      4035.006       148.080        17.402        89.536
  Flooding Loss ............      2483.077      4623.978        62.920         5.433        32.943
  Exfiltration Loss ........         0.000         0.000         0.000         0.000         0.000
  Mass Reacted .............         0.000         0.000         0.000         0.000         0.000
  Initial Stored Mass ......         0.000         0.000         0.000         0.000         0.000
  Final Stored Mass ........       562.656       972.614        24.554         2.608        14.185
  Continuity Error (%) .....         2.044         1.941         1.164         0.840         1.017
  
  
  *************************
  Highest Continuity Errors
  *************************
  Node HS02004842 (13.41%)
  Node YS02001884 (10.20%)
  Node JK-storage (-9.46%)
  Node HS02004817 (2.53%)
  Node YSB1171 (2.46%)
  
  
  ***************************
  Time-Step Critical Elements
  ***************************
  Link WS02006252WS02006251 (63.02%)
  Link WS02006280WS02006229 (10.80%)
  Link WS02006238WS02006235 (8.02%)
  Link YS02006556YS02006558 (3.40%)
  Link YS02001793JiankangQianchi (2.97%)
  
  
  ********************************
  Highest Flow Instability Indexes
  ********************************
  Link WS02006113WS02006111 (46)
  Link YS02163601YS02164001 (38)
  Link YS02001629YS02163301 (37)
  Link YS02163301YS02001633 (37)
  Link YS02001619YS02001622 (36)
  
  
  *************************
  Routing Time Step Summary
  *************************
  Minimum Time Step           :     0.09 sec
  Average Time Step           :     1.21 sec
  Maximum Time Step           :     5.00 sec
  Percent in Steady State     :    -0.00
  Average Iterations per Step :     4.27
  Percent Not Converging      :    19.32
  
  
  ***************************
  Subcatchment Runoff Summary
  ***************************
  
  ------------------------------------------------------------------------------------------------------------------------------
                            Total      Total      Total      Total     Imperv       Perv      Total       Total     Peak  Runoff
                           Precip      Runon       Evap      Infil     Runoff     Runoff     Runoff      Runoff   Runoff   Coeff
  Subcatchment                 mm         mm         mm         mm         mm         mm         mm    10^6 ltr      LPS
  ------------------------------------------------------------------------------------------------------------------------------
  sub0                      13.45       0.00       0.00       0.63      12.47       0.31      12.77        0.01     3.75   0.950
  sub1                      13.45       0.00       0.00       1.12      11.88       0.36      12.24        0.08    25.66   0.910
  sub2                      13.45       0.00       0.00       4.44       8.39       0.53       8.92        0.08    25.29   0.663
  sub3                      13.45       0.00       0.00       4.56       8.35       0.42       8.77        0.20    55.75   0.652
  sub4                      13.45       0.00       0.00       1.22      11.71       0.26      11.97        0.25    65.52   0.890
  sub5                      13.45       0.00       0.00       0.68      12.41       0.26      12.67        0.14    44.76   0.942
  sub7                      13.45       0.00       0.00       0.86      12.18       0.35      12.53        0.04    14.26   0.931
  sub8                      13.45       0.00       0.00       0.87      12.17       0.34      12.50        0.08    26.26   0.930
  sub9                      13.45       0.00       0.00       0.88      12.17       0.33      12.50        0.06    19.64   0.929
  sub10                     13.45       0.00       0.00       0.78      12.29       0.29      12.58        0.14    44.00   0.935
  sub11                     13.45       0.00       0.00       0.77      12.30       0.31      12.61        0.15    48.45   0.938
  sub12                     13.45       0.00       0.00       1.25      11.66       0.50      12.16        0.11    38.10   0.904
  sub14                     13.45       0.00       0.00       0.88      12.16       0.33      12.49        0.12    38.67   0.929
  sub15                     13.45       0.00       0.00       3.37       9.35       0.66      10.01        0.17    57.01   0.744
  sub16                     13.45       0.00       0.00       3.56       8.97       0.88       9.85        0.10    37.63   0.732
  sub17                     13.45       0.00       0.00       3.47       9.10       0.84       9.94        0.09    30.67   0.739
  sub22                     13.45       0.00       0.00       4.98       7.63       0.81       8.43        0.53   184.54   0.627
  sub23                     13.45       0.00       0.00       4.17       8.43       0.81       9.24        0.44   154.22   0.687
  sub60                     13.45       0.00       0.00       1.53       9.85       0.09       9.93        3.01   438.14   0.738
  sub61                     13.45       0.00       0.00       2.16       9.95       0.12      10.07        3.11   536.45   0.749
  sub62                     13.45       0.00       0.00       0.98      10.84       0.10      10.94        3.36   552.35   0.813
  sub63                     13.45       0.00       0.00       3.77       8.69       0.14       8.83        2.67   492.63   0.656
  sub64                     13.45       0.00       0.00       1.93       9.45       0.09       9.54        2.90   416.72   0.709
  sub65                     13.45       0.00       0.00       1.67       9.61       0.08       9.70        2.98   423.09   0.721
  sub66                     13.45       0.00       0.00       3.81       8.10       0.09       8.18        2.51   380.66   0.608
  sub67                     13.45       0.00       0.00       0.95      11.38       0.13      11.51        3.55   679.52   0.856
  sub68                     13.45       0.00       0.00       1.75      10.45       0.13      10.59        3.26   586.26   0.787
  sub69                     13.45       0.00       0.00       1.83      10.79       0.19      10.98        2.57   544.72   0.816
  sub70                     13.45      11.20       0.00       7.51      14.65       0.88      15.52        3.55   494.81   0.630
  sub71                     13.45       0.00       0.00       0.99      10.58       0.09      10.67        2.52   389.24   0.793
  sub72                     13.45       0.00       0.00       0.89       8.56       0.05       8.61        1.75   189.18   0.640
  1                         13.45      15.11       0.00       1.37      16.56       4.63      21.19        4.98   484.42   0.742
  2                         13.45       0.00       0.00       3.02       3.21       1.96       5.17        2.07   340.45   0.384
  
  
  ****************************
  Subcatchment Washoff Summary
  ****************************
  
  ------------------------------------------------------------------------------------------
                                 COD            SS            TN            TP         NH4-N
  Subcatchment                    kg            kg            kg            kg            kg
  ------------------------------------------------------------------------------------------
  sub0                         2.670         5.197         0.046         0.004         0.022
  sub1                        11.241        22.423         0.210         0.015         0.101
  sub2                         6.894        13.384         0.145         0.010         0.067
  sub3                        16.924        32.573         0.350         0.024         0.161
  sub4                        25.772        51.904         0.510         0.031         0.245
  sub5                        25.778        50.682         0.460         0.035         0.223
  sub7                         5.751        11.638         0.108         0.007         0.052
  sub8                         8.581        17.755         0.171         0.010         0.082
  sub9                         7.353        15.005         0.142         0.009         0.068
  sub10                       21.202        42.223         0.389         0.028         0.188
  sub11                       20.657        41.614         0.386         0.026         0.187
  sub12                       17.724        35.094         0.321         0.024         0.155
  sub14                       15.732        31.800         0.298         0.020         0.144
  sub15                       20.231        39.321         0.389         0.028         0.182
  sub16                       13.129        25.518         0.249         0.019         0.117
  sub17                       12.049        23.208         0.222         0.017         0.105
  sub22                       62.582       119.432         1.186         0.090         0.554
  sub23                       36.683        72.439         0.776         0.051         0.357
  sub60                      243.520       456.962         4.842         0.298         2.321
  sub61                      302.151       564.434         5.627         0.386         2.710
  sub62                      313.722       596.076         6.119         0.388         2.938
  sub63                      223.275       410.850         4.468         0.314         2.075
  sub64                      305.877       553.773         5.626         0.410         2.687
  sub65                      313.037       569.066         5.795         0.415         2.772
  sub66                      176.068       321.340         3.608         0.236         1.687
  sub67                      466.222       877.505         8.365         0.616         4.045
  sub68                      332.037       626.413         6.347         0.429         3.034
  sub69                      298.258       568.561         5.590         0.393         2.674
  sub70                      502.897       962.303        10.037         0.699         4.710
  sub71                      206.745       396.330         4.242         0.246         2.030
  sub72                      164.385       293.107         3.069         0.210         1.476
  1                          349.075       671.606         7.102         0.495         3.297
  2                           42.749        75.577         1.214         0.073         0.518
  ------------------------------------------------------------------------------------------
  System                    4570.974      8595.115        88.408         6.057        41.983
  
  
  ******************
  Node Depth Summary
  ******************
  
  ---------------------------------------------------------------------------------
                                 Average  Maximum  Maximum  Time of Max    Reported
                                   Depth    Depth      HGL   Occurrence   Max Depth
  Node                 Type       Meters   Meters   Meters  days hr:min      Meters
  ---------------------------------------------------------------------------------
  WS02001211           JUNCTION     0.77     0.85     5.69     0  03:07        0.85
  WS02001212           JUNCTION     0.48     0.58     5.64     0  03:06        0.58
  WS02001213           JUNCTION     0.71     0.85     5.62     0  03:06        0.85
  WS02003069           JUNCTION     0.51     0.72     5.30     0  03:05        0.72
  WS02003072           JUNCTION     0.57     0.76     5.13     0  03:06        0.76
  WS02003073           JUNCTION     0.35     0.48     4.54     0  03:06        0.48
  WS02003060           JUNCTION     0.45     0.63     5.57     0  03:05        0.63
  WS02003066           JUNCTION     0.24     0.39     5.94     0  03:04        0.39
  WS02003059           JUNCTION     0.76     0.91     5.60     0  03:05        0.91
  WS02003067           JUNCTION     0.59     0.82     6.14     0  03:03        0.82
  WS02004401           JUNCTION     0.71     1.24     7.24     0  03:02        1.22
  WS02004402           JUNCTION     0.74     1.22     7.18     0  03:03        1.22
  WS02004403           JUNCTION     0.75     1.20     7.13     0  03:02        1.19
  WS02004404           JUNCTION     0.83     1.25     7.10     0  03:02        1.24
  WS02004406           JUNCTION     0.83     1.16     6.99     0  03:02        1.16
  WS02004409           JUNCTION     0.52     0.96     6.73     0  03:03        0.96
  WS02004410           JUNCTION     0.54     0.95     6.67     0  03:03        0.95
  WS02004411           JUNCTION     0.55     0.93     6.61     0  03:03        0.93
  WS02004412           JUNCTION     0.56     0.90     6.54     0  03:03        0.90
  WS02004413           JUNCTION     0.72     1.02     6.49     0  03:03        1.02
  WS02004405           JUNCTION     0.82     1.22     7.07     0  03:02        1.20
  WS02006109           JUNCTION     0.80     1.66     8.27     0  03:02        1.64
  WS02006110           JUNCTION     0.78     1.45     8.04     0  03:02        1.44
  WS02006111           JUNCTION     0.25     0.89     7.59     0  03:02        0.88
  WS02006112           JUNCTION     0.88     1.56     7.44     0  03:02        1.55
  WS02006113           JUNCTION     0.36     0.92     7.82     0  03:02        0.92
  WS02006115           JUNCTION     0.61     1.22     7.36     0  03:02        1.21
  WS02006116           JUNCTION     0.68     1.26     7.30     0  03:02        1.25
  WS02006230           JUNCTION     0.79     1.88     8.62     0  03:02        1.86
  WS02006231           JUNCTION     0.54     1.52     8.64     0  03:02        1.51
  WS02006232           JUNCTION     0.67     1.62     8.66     0  03:02        1.62
  WS02006234           JUNCTION     0.60     1.53     8.68     0  03:02        1.52
  WS02006235           JUNCTION     0.64     1.54     8.71     0  03:02        1.53
  WS02006238           JUNCTION     0.66     1.56     8.70     0  03:02        1.55
  WS02006240           JUNCTION     0.55     1.40     8.70     0  03:01        1.40
  WS02006242           JUNCTION     0.60     1.43     8.70     0  03:02        1.42
  WS02006243           JUNCTION     0.47     1.30     8.72     0  06:52        1.27
  WS02006245           JUNCTION     0.44     1.23     8.72     0  06:52        1.20
  WS02006247           JUNCTION     0.45     1.24     8.74     0  06:52        1.19
  WS02006248           JUNCTION     0.39     1.10     8.69     0  02:57        1.10
  WS02006249           JUNCTION     0.41     1.09     8.69     0  02:55        1.09
  WS02006239           JUNCTION     0.61     1.49     8.70     0  03:02        1.48
  WS02006251           JUNCTION     0.38     1.29     8.96     0  07:29        1.10
  WS02006252           JUNCTION     0.26     0.84     9.09     0  07:29        0.65
  WS02006253           JUNCTION     0.41     1.35     8.99     0  07:29        1.13
  WS02006256           JUNCTION     1.74     2.35     9.28     0  01:02        2.35
  WS02004138           JUNCTION     0.19     0.20     7.45     0  00:00        0.19
  WS02004139           JUNCTION     0.72     0.79     5.70     0  03:07        0.79
  WS02004407           JUNCTION     0.23     0.40     6.71     0  03:03        0.40
  WS02006228           JUNCTION     0.81     1.83     8.48     0  03:02        1.82
  WS02006229           JUNCTION     0.79     1.90     8.59     0  03:02        1.89
  WS02006280           JUNCTION     0.07     0.29     8.57     0  03:05        0.29
  WS02006284           JUNCTION     0.37     0.65     9.04     0  03:02        0.64
  WS02006287           JUNCTION     0.10     0.39     9.34     0  03:02        0.39
  WSF200               JUNCTION     0.23     0.44     5.67     0  03:04        0.44
  HS02004901           JUNCTION     0.13     0.38    10.20     0  03:01        0.37
  HS02004881           JUNCTION     0.01     0.05     9.08     0  03:01        0.05
  HS02004876           JUNCTION     0.04     0.16     9.19     0  03:01        0.16
  HS02004870           JUNCTION     0.02     0.09     9.38     0  03:01        0.09
  HS02004862           JUNCTION     0.02     0.11     9.49     0  03:01        0.11
  HS02004856           JUNCTION     0.08     0.15     9.58     0  03:01        0.15
  HS02004852           JUNCTION     0.01     0.07     9.59     0  03:02        0.07
  HS02004848           JUNCTION     0.01     0.07     9.67     0  03:01        0.07
  HS02004842           JUNCTION     0.34     0.40     9.67     0  03:01        0.40
  HS02004837           JUNCTION     0.03     0.09     9.67     0  03:01        0.09
  HS02004830           JUNCTION     0.04     0.10     9.57     0  03:01        0.10
  HS02004824           JUNCTION     0.03     0.13     9.53     0  03:02        0.13
  HS02004817           JUNCTION     0.45     0.69     9.54     0  03:02        0.69
  HS02004807           JUNCTION     0.13     0.36     9.53     0  03:02        0.36
  HS02004802           JUNCTION     0.17     0.39     9.52     0  03:02        0.39
  HS02004799           JUNCTION     0.12     0.46     9.68     0  03:01        0.46
  HS02004792           JUNCTION     0.04     0.22     9.74     0  03:01        0.21
  HS02004788           JUNCTION     0.03     0.16    10.05     0  03:02        0.16
  HS02004785           JUNCTION     0.05     0.25    10.15     0  03:02        0.25
  HS02004777           JUNCTION     0.15     0.39    10.19     0  03:01        0.39
  HS02004770           JUNCTION     0.12     0.37    10.20     0  03:01        0.36
  HS02004480           JUNCTION     0.08     0.38     9.62     0  03:01        0.38
  HS02004479           JUNCTION     0.12     0.42     9.62     0  03:01        0.42
  HS02004478           JUNCTION     0.06     0.28     9.50     0  03:01        0.28
  YS02001745           JUNCTION     0.74     0.95     8.47     0  03:01        0.95
  YS02001748           JUNCTION     1.13     1.65     8.73     0  02:34        1.37
  YS02001751           JUNCTION     1.32     1.72     8.60     0  02:34        1.57
  YS02001754           JUNCTION     1.57     1.84     8.45     0  03:00        1.83
  YS02001762           JUNCTION     1.77     2.05     8.45     0  02:58        2.03
  YS02001765           JUNCTION     1.72     2.00     8.45     0  02:58        1.98
  YS02001767           JUNCTION     1.68     1.95     8.44     0  02:58        1.94
  YS02001770           JUNCTION     1.68     1.95     8.44     0  02:30        1.92
  YS02001774           JUNCTION     1.75     2.02     8.44     0  02:30        1.98
  YS02001779           JUNCTION     1.49     1.68     8.37     0  02:30        1.68
  YS02001882           JUNCTION     0.57     1.63     8.35     0  02:59        1.62
  YS02001884           JUNCTION     0.67     1.74     8.35     0  02:59        1.73
  YS02001759           JUNCTION     1.80     2.09     8.45     0  02:58        2.07
  YS02001887           JUNCTION     0.74     1.81     8.35     0  03:01        1.81
  YS02001890           JUNCTION     0.77     1.81     8.32     0  02:50        1.81
  YS02001898           JUNCTION     0.54     1.56     8.30     0  02:52        1.56
  YS02001901           JUNCTION     0.66     1.68     8.29     0  02:53        1.67
  YS02001904           JUNCTION     0.64     1.64     8.27     0  02:55        1.63
  YS02001907           JUNCTION     0.97     1.96     8.25     0  02:50        1.96
  YS02001910           JUNCTION     0.76     1.79     8.29     0  02:52        1.78
  YS02001915           JUNCTION     0.56     1.60     8.32     0  02:51        1.58
  YS02001918           JUNCTION     0.30     1.28     8.35     0  02:51        1.27
  YS02001619           JUNCTION     1.28     1.54     8.47     0  02:35        1.48
  YS02001629           JUNCTION     1.63     1.85     8.40     0  02:35        1.84
  YS02001641           JUNCTION     1.73     1.94     8.37     0  02:39        1.93
  YS02001644           JUNCTION     1.73     1.92     8.35     0  02:39        1.92
  YS02001652           JUNCTION     1.58     2.03     8.63     0  02:46        1.86
  YS02001655           JUNCTION     1.34     2.20     9.05     0  02:26        1.65
  YS02001920           JUNCTION     0.40     1.36     8.37     0  02:51        1.34
  YS02001923           JUNCTION     0.24     1.12     8.38     0  02:51        1.10
  YS02001926           JUNCTION     0.30     0.94     8.39     0  02:51        0.94
  YS02001929           JUNCTION     0.17     0.71     8.40     0  02:52        0.71
  YS02001658           JUNCTION     1.08     1.89     9.03     0  02:48        1.44
  YS02001661           JUNCTION     0.84     1.83     9.23     0  02:56        1.36
  YS02001664           JUNCTION     0.38     0.57     8.50     0  02:42        0.56
  YS02001622           JUNCTION     1.30     1.54     8.45     0  02:35        1.50
  YS02001633           JUNCTION     1.72     1.95     8.41     0  02:39        1.94
  YS02001649           JUNCTION     1.78     2.05     8.44     0  02:43        2.04
  YS02001757           JUNCTION     1.90     2.17     8.43     0  02:58        2.17
  YS02001895           JUNCTION     0.54     1.57     8.31     0  02:55        1.56
  YS02001625           JUNCTION     1.58     1.78     8.38     0  02:32        1.78
  YS02163301           JUNCTION     1.66     1.89     8.40     0  02:39        1.88
  YS02163601           JUNCTION     1.77     2.00     8.39     0  02:39        1.98
  YS02164001           JUNCTION     1.71     1.93     8.38     0  02:39        1.91
  YS02001647           JUNCTION     1.56     1.80     8.41     0  02:46        1.78
  YSB1154              JUNCTION     0.26     0.57     9.62     0  03:01        0.57
  YSB6556              JUNCTION     0.15     0.45     9.62     0  03:02        0.45
  YSB1174              JUNCTION     0.21     0.52     9.62     0  03:01        0.51
  YSB1171              JUNCTION     0.41     0.72     9.62     0  03:01        0.72
  YS02006553           JUNCTION     0.97     2.16     8.44     0  02:56        1.96
  YS02006561           JUNCTION     0.32     1.84     8.50     0  02:56        1.08
  YS02006556           JUNCTION     0.94     2.37     8.68     0  02:56        1.93
  YS02006558           JUNCTION     0.98     2.50     8.77     0  02:56        1.98
  YS02001783           JUNCTION     0.54     2.26     8.40     0  02:56        1.47
  YS02001784           JUNCTION     0.56     2.26     8.32     0  02:56        1.42
  YS02001786           JUNCTION     0.50     2.23     8.26     0  02:56        1.27
  YS02001788           JUNCTION     0.43     2.28     8.26     0  02:56        1.13
  YS02001790           JUNCTION     0.55     1.96     7.60     0  02:56        1.29
  YS02001791           JUNCTION     0.51     2.33     7.80     0  04:45        1.27
  YS02001793           JUNCTION     0.70     2.84     7.67     0  04:43        1.80
  WSC                  OUTFALL      0.35     0.48     1.15     0  03:07        0.48
  JK-storage           STORAGE      3.02     5.80     6.60     0  02:20        5.80
  CC-storage           STORAGE      1.16     1.43     8.43     0  03:20        1.43
  XR-storage           STORAGE      6.64     7.72     5.72     0  02:59        7.72
  
  
  *******************
  Node Inflow Summary
  *******************
  
  -------------------------------------------------------------------------------------------------
                                  Maximum  Maximum                  Lateral       Total        Flow
                                  Lateral    Total  Time of Max      Inflow      Inflow     Balance
                                   Inflow   Inflow   Occurrence      Volume      Volume       Error
  Node                 Type           LPS      LPS  days hr:min    10^6 ltr    10^6 ltr     Percent
  -------------------------------------------------------------------------------------------------
  WS02001211           JUNCTION      7.35   390.89     0  03:21       0.207        10.1       0.407
  WS02001212           JUNCTION      0.00   394.40     0  03:22           0          10       0.247
  WS02001213           JUNCTION      0.00   397.49     0  03:21           0          10       0.295
  WS02003069           JUNCTION      0.32  1332.22     0  03:05     0.00902        19.3       0.196
  WS02003072           JUNCTION      0.00  1331.98     0  03:05           0        19.3       0.232
  WS02003073           JUNCTION      1.82  1333.98     0  03:06      0.0514        19.3       0.275
  WS02003060           JUNCTION     16.53  1331.95     0  03:04       0.466        19.4       0.183
  WS02003066           JUNCTION      0.00   938.51     0  03:04           0        8.97       0.056
  WS02003059           JUNCTION      0.00   401.56     0  03:21           0        9.99       0.418
  WS02003067           JUNCTION      0.00   938.00     0  03:04           0        8.98       0.113
  WS02004401           JUNCTION      0.00   939.58     0  03:02           0        9.22       0.234
  WS02004402           JUNCTION      0.00   940.17     0  03:02           0         9.2       0.220
  WS02004403           JUNCTION      0.00   940.32     0  03:02           0        9.18       0.201
  WS02004404           JUNCTION      0.16   940.60     0  03:03     0.00457        9.17       0.144
  WS02004406           JUNCTION      0.00   940.02     0  03:02           0        9.14       0.368
  WS02004409           JUNCTION      0.00   939.44     0  03:03           0         9.1       0.200
  WS02004410           JUNCTION      0.00   938.25     0  03:03           0        9.08       0.226
  WS02004411           JUNCTION      0.00   937.69     0  03:03           0        9.06       0.231
  WS02004412           JUNCTION      0.00   937.38     0  03:03           0        9.04       0.248
  WS02004413           JUNCTION      0.00   937.85     0  03:03           0        9.01       0.361
  WS02004405           JUNCTION      0.04   940.52     0  03:02     0.00107        9.16       0.218
  WS02006109           JUNCTION      1.23   915.71     0  03:02      0.0347        9.26       0.208
  WS02006110           JUNCTION      0.00   915.30     0  03:02           0        9.24       0.213
  WS02006111           JUNCTION      0.00   915.67     0  03:02           0        9.21       0.038
  WS02006112           JUNCTION     30.67   939.32     0  03:02      0.0853        9.29       0.288
  WS02006113           JUNCTION      0.00   915.50     0  03:02           0        9.22       0.099
  WS02006115           JUNCTION      0.00   939.22     0  03:02           0        9.26       0.238
  WS02006116           JUNCTION      0.00   939.98     0  03:02           0        9.24       0.196
  WS02006230           JUNCTION     10.28   532.71     0  07:30        0.29        6.83       0.140
  WS02006231           JUNCTION      0.00   522.77     0  07:30           0        6.55       0.153
  WS02006232           JUNCTION      0.00   522.60     0  07:30           0        6.56       0.237
  WS02006234           JUNCTION      0.00   522.78     0  07:31           0        6.57       0.106
  WS02006235           JUNCTION      0.00   523.84     0  07:30           0        6.62       0.135
  WS02006238           JUNCTION      0.00   381.34     0  06:30           0        2.89       0.098
  WS02006240           JUNCTION      0.00   383.67     0  06:30           0        2.86       0.376
  WS02006242           JUNCTION      0.00   383.34     0  06:30           0        2.86       0.472
  WS02006243           JUNCTION      0.00   383.94     0  06:30           0        2.85       0.226
  WS02006245           JUNCTION      0.00   383.96     0  06:30           0        2.86       0.368
  WS02006247           JUNCTION      0.00   387.04     0  06:23           0        2.86       0.253
  WS02006248           JUNCTION      0.00   391.09     0  06:23           0        2.87       0.131
  WS02006249           JUNCTION      0.00   428.66     0  07:29           0        3.04       0.341
  WS02006239           JUNCTION      0.00   381.80     0  06:30           0        2.87       0.254
  WS02006251           JUNCTION      0.08   411.74     0  07:29     0.00217        3.09       0.260
  WS02006252           JUNCTION      0.00   400.00     0  06:20           0        2.58       0.015
  WS02006253           JUNCTION      3.75   143.70     0  03:01      0.0103       0.515       0.663
  WS02006256           JUNCTION      0.00   983.00     0  02:30           0        9.84       0.001
  WS02004138           JUNCTION      0.00   380.00     0  00:00           0        9.92       0.070
  WS02004139           JUNCTION      0.32   394.45     0  00:00     0.00905        9.92       0.464
  WS02004407           JUNCTION      0.00   939.80     0  03:02           0         9.1       0.086
  WS02006228           JUNCTION      0.00   914.17     0  03:02           0        9.24       0.147
  WS02006229           JUNCTION      0.00   917.72     0  03:01           0        9.25       0.124
  WS02006280           JUNCTION      0.00   680.10     0  03:02           0        2.43       0.011
  WS02006284           JUNCTION      0.10   678.96     0  03:02      0.0027        2.43       0.045
  WS02006287           JUNCTION      0.00   677.60     0  03:02           0        2.43       0.032
  WSF200               JUNCTION      0.00   938.67     0  03:04           0        8.97       0.053
  HS02004901           JUNCTION     37.63    37.63     0  03:01       0.103       0.103       1.742
  HS02004881           JUNCTION     14.26   140.54     0  03:01      0.0422       0.463       0.090
  HS02004876           JUNCTION     25.66   127.64     0  03:01      0.0814       0.422       0.130
  HS02004870           JUNCTION     26.26   103.58     0  03:01      0.0799        0.34       0.036
  HS02004862           JUNCTION     25.49    79.36     0  03:01      0.0888       0.261       0.068
  HS02004856           JUNCTION     19.64    55.40     0  03:01      0.0601       0.173       0.843
  HS02004852           JUNCTION      0.00    37.84     0  03:01           0       0.113       0.053
  HS02004848           JUNCTION     55.75    55.75     0  03:01       0.197       0.197       0.029
  HS02004842           JUNCTION      0.00    16.84     0  03:01           0       0.097      15.491
  HS02004837           JUNCTION     50.35    65.70     0  03:01       0.318       0.402       0.204
  HS02004830           JUNCTION      0.15    64.79     0  03:01     0.00423       0.392       0.316
  HS02004824           JUNCTION     65.57   128.43     0  03:01       0.251       0.642       0.086
  HS02004817           JUNCTION      0.60   124.46     0  03:01      0.0169       0.658       2.599
  HS02004807           JUNCTION     48.45   165.76     0  03:01       0.147       0.788       0.555
  HS02004802           JUNCTION      0.00   165.31     0  03:04           0       0.785       0.508
  HS02004799           JUNCTION     38.67   445.98     0  03:01       0.119        1.42       0.191
  HS02004792           JUNCTION    184.82   411.79     0  03:01        0.54         1.3       0.034
  HS02004788           JUNCTION     58.68   233.42     0  03:01       0.219       0.758       0.053
  HS02004785           JUNCTION      0.15   182.19     0  03:01     0.00423        0.54       0.093
  HS02004777           JUNCTION      0.03   184.99     0  03:01    0.000846       0.541       0.971
  HS02004770           JUNCTION    154.22   188.96     0  03:01       0.441       0.542       0.579
  HS02004480           JUNCTION      0.00   517.15     0  03:01           0        1.66       0.068
  HS02004479           JUNCTION      0.00    75.45     0  03:02           0       0.258       0.286
  HS02004478           JUNCTION      0.00   677.03     0  03:02           0        2.43       0.010
  YS02001745           JUNCTION    438.14   438.14     0  03:01        3.01        3.02       0.358
  YS02001748           JUNCTION      0.04   558.63     0  02:33     0.00127        3.01       0.739
  YS02001751           JUNCTION      0.01   442.98     0  03:01     0.00031        2.98       0.791
  YS02001754           JUNCTION      0.26   443.53     0  03:01     0.00733        2.96       0.848
  YS02001762           JUNCTION      0.00   316.10     0  02:42           0        2.13       1.006
  YS02001765           JUNCTION      0.00   317.10     0  02:42           0        2.13       1.166
  YS02001767           JUNCTION      0.54   316.23     0  02:42      0.0151        2.16       1.689
  YS02001770           JUNCTION    552.50   673.62     0  03:04        3.37        4.12       0.776
  YS02001774           JUNCTION      0.00   674.04     0  03:02           0         2.7       0.949
  YS02001779           JUNCTION      0.01   673.95     0  03:04    0.000141        2.67       0.591
  YS02001882           JUNCTION      0.00    12.12     0  02:43           0      0.0238       9.809
  YS02001884           JUNCTION      0.00    20.61     0  02:35           0      0.0608      11.359
  YS02001759           JUNCTION    536.49   621.72     0  02:42        3.11        4.46       0.517
  YS02001887           JUNCTION    679.97   679.97     0  03:01        3.56         3.6       0.240
  YS02001890           JUNCTION      0.00   679.32     0  03:01           0        3.55       0.260
  YS02001898           JUNCTION      0.00   517.92     0  02:59           0        3.45       0.096
  YS02001901           JUNCTION      0.00   517.81     0  03:03           0        3.45       0.195
  YS02001904           JUNCTION      0.00   517.57     0  02:59           0        3.44       0.177
  YS02001907           JUNCTION      0.00  1111.16     0  03:01           0        7.77       0.316
  YS02001910           JUNCTION      0.00   594.98     0  03:01           0        4.34       0.281
  YS02001915           JUNCTION    389.26   594.29     0  03:01        2.52        4.35       0.134
  YS02001918           JUNCTION      0.00   259.47     0  02:52           0        1.84       0.081
  YS02001619           JUNCTION    380.66   380.66     0  03:01        2.51        2.51       0.489
  YS02001629           JUNCTION      0.00   195.38     0  02:39           0        1.59       1.843
  YS02001641           JUNCTION      0.00   411.23     0  02:38           0        4.45       0.478
  YS02001644           JUNCTION    416.76  1520.60     0  03:01         2.9        11.7       0.229
  YS02001652           JUNCTION      0.00   497.59     0  03:01           0        2.63       0.903
  YS02001655           JUNCTION      0.15   497.36     0  03:01     0.00434        2.65       0.912
  YS02001920           JUNCTION      2.87   259.33     0  02:52      0.0809        1.84       0.158
  YS02001923           JUNCTION      0.04   229.14     0  02:52     0.00106        1.75       0.052
  YS02001926           JUNCTION      0.05   200.69     0  03:02     0.00147        1.75       0.199
  YS02001929           JUNCTION    189.18   189.18     0  03:01        1.75        1.75       0.036
  YS02001658           JUNCTION      0.00   609.17     0  02:29           0        2.69       0.798
  YS02001661           JUNCTION      0.00   662.54     0  02:43           0        3.07      -0.132
  YS02001664           JUNCTION    492.63   492.63     0  03:01        2.67        3.05       0.194
  YS02001622           JUNCTION      0.00   380.83     0  03:00           0         2.5       1.285
  YS02001633           JUNCTION    423.29   423.29     0  03:01        2.99        4.52       0.720
  YS02001649           JUNCTION      0.00   877.51     0  02:39           0        6.78       0.554
  YS02001757           JUNCTION      0.00  1678.84     0  02:40           0        9.11       1.019
  YS02001895           JUNCTION      0.00   517.43     0  03:03           0        3.45       0.144
  YS02001625           JUNCTION      0.00   409.76     0  03:01           0        2.48       1.589
  YS02163301           JUNCTION      0.00   203.44     0  02:34           0        1.57       1.562
  YS02163601           JUNCTION      0.11   410.86     0  02:39      0.0031        4.48       0.677
  YS02164001           JUNCTION      0.00   411.02     0  02:39           0        4.46       0.460
  YS02001647           JUNCTION      0.00   731.41     0  03:21           0        6.02       0.471
  YSB1154              JUNCTION     44.76    44.76     0  03:01       0.144       0.144       1.018
  YSB6556              JUNCTION      0.00    43.26     0  03:01           0       0.145       0.869
  YSB1174              JUNCTION     38.10    38.10     0  03:01       0.106       0.107       1.223
  YSB1171              JUNCTION      0.00    76.89     0  03:01           0       0.257       2.526
  YS02006553           JUNCTION      0.00   719.01     0  02:51           0         6.8       0.230
  YS02006561           JUNCTION      0.00  1145.07     0  02:55           0          10       0.008
  YS02006556           JUNCTION      0.00   719.25     0  02:51           0         6.8       0.165
  YS02006558           JUNCTION    587.14  1146.25     0  02:55        3.28        10.1       0.049
  YS02001783           JUNCTION      0.00  1145.03     0  02:55           0          10       0.022
  YS02001784           JUNCTION      1.06  1146.24     0  02:55      0.0299        10.1       0.036
  YS02001786           JUNCTION      0.06  1145.91     0  02:55     0.00159        10.1       0.036
  YS02001788           JUNCTION      0.07  1148.61     0  02:55       0.002          10       0.020
  YS02001790           JUNCTION      0.15  1160.96     0  02:54     0.00437        10.1       0.015
  YS02001791           JUNCTION      0.00  1265.65     0  02:53           0          10       0.010
  YS02001793           JUNCTION      0.00  1214.49     0  02:52           0        10.1      -0.025
  WSC                  OUTFALL       0.00  1334.30     0  03:07           0        19.3       0.000
  JK-storage           STORAGE       0.00  1177.05     0  02:51           0        10.2      -8.642
  CC-storage           STORAGE       0.00  1679.56     0  02:40           0        6.42       0.994
  XR-storage           STORAGE    1024.87  1024.87     0  03:01        12.7        13.3       0.000
  
  
  **********************
  Node Surcharge Summary
  **********************
  
  Surcharging occurs when water rises above the top of the highest conduit.
  ---------------------------------------------------------------------
                                               Max. Height   Min. Depth
                                   Hours       Above Crown    Below Rim
  Node                 Type      Surcharged         Meters       Meters
  ---------------------------------------------------------------------
  WS02004401           JUNCTION        0.49          0.238        1.422
  WS02004402           JUNCTION        0.52          0.223        1.517
  WS02004403           JUNCTION        0.53          0.202        1.828
  WS02004404           JUNCTION        0.80          0.248        2.532
  WS02004406           JUNCTION        0.66          0.165        2.285
  WS02004413           JUNCTION        0.19          0.023        2.177
  WS02004405           JUNCTION        0.72          0.220        2.580
  WS02006109           JUNCTION        2.76          0.837        0.983
  WS02006110           JUNCTION        1.17          0.541        1.309
  WS02006111           JUNCTION        0.13          0.076        1.794
  WS02006112           JUNCTION        1.71          0.557        1.123
  WS02006113           JUNCTION        0.16          0.123        1.807
  WS02006115           JUNCTION        0.36          0.206        2.044
  WS02006116           JUNCTION        0.38          0.201        2.089
  WS02006230           JUNCTION        0.81          0.796        0.774
  WS02006231           JUNCTION        1.16          0.810        0.720
  WS02006232           JUNCTION        2.56          0.924        0.556
  WS02006234           JUNCTION        1.71          0.806        0.434
  WS02006235           JUNCTION        2.06          0.833        0.457
  WS02006238           JUNCTION        2.20          0.838        0.592
  WS02006240           JUNCTION        1.33          0.692        0.698
  WS02006242           JUNCTION        1.54          0.697        0.123
  WS02006243           JUNCTION        1.01          0.590        0.180
  WS02006245           JUNCTION        0.77          0.525        0.325
  WS02006247           JUNCTION        0.80          0.532        0.228
  WS02006248           JUNCTION        0.65          0.380        0.000
  WS02006249           JUNCTION        0.71          0.390        0.000
  WS02006239           JUNCTION        1.65          0.748        0.542
  WS02006251           JUNCTION        0.36          0.258        0.922
  WS02006252           JUNCTION        0.98          0.443        0.657
  WS02006253           JUNCTION        0.38          0.306        2.174
  WS02006256           JUNCTION        6.82          2.050        0.000
  WS02006228           JUNCTION        2.69          0.999        1.201
  YS02001748           JUNCTION        5.22          0.572        0.618
  YS02001751           JUNCTION        5.38          0.720        0.480
  YS02001754           JUNCTION        5.57          0.788        0.362
  YS02001762           JUNCTION        5.75          1.053        0.097
  YS02001765           JUNCTION        5.72          1.001        0.099
  YS02001767           JUNCTION        5.69          0.955        0.075
  YS02001770           JUNCTION        5.68          0.920        0.000
  YS02001774           JUNCTION        5.74          1.017        0.033
  YS02001779           JUNCTION        5.56          0.680        0.000
  YS02001882           JUNCTION        1.06          0.634        0.196
  YS02001884           JUNCTION        1.09          0.675        0.195
  YS02001759           JUNCTION        5.78          1.088        0.122
  YS02001887           JUNCTION        1.17          0.762        0.188
  YS02001890           JUNCTION        1.19          0.760        0.000
  YS02001898           JUNCTION        1.02          0.532        0.208
  YS02001901           JUNCTION        1.13          0.677        0.193
  YS02001904           JUNCTION        1.11          0.638        0.212
  YS02001907           JUNCTION        1.91          0.950        0.000
  YS02001910           JUNCTION        1.24          0.785        0.315
  YS02001915           JUNCTION        1.04          0.599        0.401
  YS02001918           JUNCTION        0.85          0.281        0.529
  YS02001619           JUNCTION        5.38          0.537        0.073
  YS02001629           JUNCTION        5.38          0.470        0.000
  YS02001641           JUNCTION        5.73          0.936        0.164
  YS02001644           JUNCTION        5.73          0.920        0.000
  YS02001652           JUNCTION        5.61          0.999        0.131
  YS02001655           JUNCTION        5.39          1.200        0.000
  YS02001920           JUNCTION        0.88          0.364        0.776
  YS02001658           JUNCTION        5.25          0.889        0.411
  YS02001661           JUNCTION        0.17          0.757        0.633
  YS02001622           JUNCTION        5.40          0.542        0.078
  YS02001633           JUNCTION        5.71          0.931        0.129
  YS02001649           JUNCTION        5.75          1.050        0.000
  YS02001757           JUNCTION        5.86          1.173        0.037
  YS02001895           JUNCTION        1.03          0.566        0.184
  YS02001625           JUNCTION        5.64          0.780        0.000
  YS02163301           JUNCTION        5.68          0.886        0.144
  YS02163601           JUNCTION        5.75          0.996        0.084
  YS02164001           JUNCTION        5.72          0.926        0.174
  YS02001647           JUNCTION        5.62          0.803        0.097
  YS02006553           JUNCTION        1.99          1.160        0.030
  YS02006561           JUNCTION        0.86          1.040        0.110
  YS02006556           JUNCTION        1.47          1.330        0.020
  YS02006558           JUNCTION        1.43          1.400        0.000
  YS02001783           JUNCTION        1.34          1.457        0.143
  YS02001784           JUNCTION        1.29          1.456        0.034
  YS02001786           JUNCTION        1.11          1.430        0.000
  YS02001788           JUNCTION        0.92          1.480        0.000
  YS02001790           JUNCTION        1.74          1.157        0.000
  YS02001791           JUNCTION        1.84          1.527        0.393
  YS02001793           JUNCTION        2.16          1.837        0.763
  
  
  *********************
  Node Flooding Summary
  *********************
  
  Flooding refers to all water that overflows a node, whether it ponds or not.
  --------------------------------------------------------------------------
                                                             Total   Maximum
                                 Maximum   Time of Max       Flood    Ponded
                        Hours       Rate    Occurrence      Volume     Depth
  Node                 Flooded       LPS   days hr:min    10^6 ltr    Meters
  --------------------------------------------------------------------------
  WS02006248              0.08     14.82      0  03:03       0.002     0.000
  WS02006249              0.34    258.47      0  03:02       0.168     0.000
  WS02006256              4.13    770.80      0  02:49       6.062     0.000
  YS02001770              0.01      7.87      0  02:30       0.000     0.000
  YS02001779              3.12    673.93      0  03:04       2.648     0.000
  YS02001890              0.34    162.98      0  03:01       0.085     0.000
  YS02001907              0.72    727.29      0  03:01       0.957     0.000
  YS02001629              0.01      5.23      0  02:35       0.000     0.000
  YS02001644              4.43   1520.53      0  03:01      10.087     0.000
  YS02001655              0.01    165.66      0  02:26       0.000     0.000
  YS02001649              0.02     27.04      0  02:46       0.001     0.000
  YS02001625              1.42    409.65      0  03:01       0.856     0.000
  YS02006558              0.01      6.90      0  02:56       0.000     0.000
  YS02001786              0.01     37.34      0  02:56       0.000     0.000
  YS02001788              0.01     99.04      0  02:56       0.000     0.000
  YS02001790              0.01    212.94      0  04:46       0.000     0.000
  JK-storage              1.01    672.18      0  03:00       1.270     0.000
  XR-storage              3.46    644.72      0  03:01       2.614     0.000
  
  
  **********************
  Storage Volume Summary
  **********************
  
  --------------------------------------------------------------------------------------------------
                         Average     Avg  Evap Exfil       Maximum     Max    Time of Max    Maximum
                          Volume    Pcnt  Pcnt  Pcnt        Volume    Pcnt     Occurrence    Outflow
  Storage Unit           1000 m3    Full  Loss  Loss       1000 m3    Full    days hr:min        LPS
  --------------------------------------------------------------------------------------------------
  JK-storage               0.152      52     0     0         0.291     100       0  02:20     983.00
  CC-storage               3.233      21     0     0         3.995      25       0  03:20     400.00
  XR-storage               0.797      86     0     0         0.926     100       0  02:59     380.00
  
  
  ***********************
  Outfall Loading Summary
  ***********************
  
  ---------------------------------------------------------------------------------------------------------------------------------
                         Flow       Avg       Max       Total         Total         Total         Total         Total         Total
                         Freq      Flow      Flow      Volume           COD            SS            TN            TP         NH4-N
  Outfall Node           Pcnt       LPS       LPS    10^6 ltr            kg            kg            kg            kg            kg
  ---------------------------------------------------------------------------------------------------------------------------------
  WSC                  100.00    756.38   1334.30      19.262      2335.754      4035.281       148.092        17.404        89.544
  ---------------------------------------------------------------------------------------------------------------------------------
  System               100.00    756.38   1334.30      19.262      2335.754      4035.281       148.092        17.404        89.544
  
  
  ********************
  Link Flow Summary
  ********************
  
  -----------------------------------------------------------------------------
                                 Maximum  Time of Max   Maximum    Max/    Max/
                                  |Flow|   Occurrence   |Veloc|    Full    Full
  Link                 Type          LPS  days hr:min     m/sec    Flow   Depth
  -----------------------------------------------------------------------------
  WS02003066WSF200     CONDUIT    938.67     0  03:04      3.00    0.16    0.32
  WS02006287WS02006284 CONDUIT    678.86     0  03:02      2.38    0.31    0.39
  WS02006284WS02006280 CONDUIT    680.10     0  03:02      2.62    0.28    0.37
  WS02006280WS02006229 CONDUIT    680.14     0  03:02      3.86    0.15    0.50
  WS02006229WS02006228 CONDUIT    914.17     0  03:02      1.82    3.03    1.00
  WS02006256WS02006235 CONDUIT    264.10     0  01:02      3.74    2.80    1.00
  WS02006253WS02006251 CONDUIT    144.06     0  03:01      0.56    0.43    1.00
  WS02006252WS02006251 CONDUIT    402.43     0  07:29      3.20    1.48    1.00
  WS02006251WS02006249 CONDUIT    428.66     0  07:29      1.13    1.24    1.00
  WS02006249WS02006248 CONDUIT    391.09     0  06:23      1.19    2.14    1.00
  WS02006248WS02006247 CONDUIT    387.04     0  06:23      1.17    0.84    1.00
  WS02006247WS02006245 CONDUIT    383.96     0  06:30      1.14    3.04    1.00
  WS02006245WS02006243 CONDUIT    383.94     0  06:30      1.19    1.14    1.00
  WS02006243WS02006242 CONDUIT    383.34     0  06:30      1.07    0.82    1.00
  WS02006242WS02006240 CONDUIT    383.67     0  06:30      1.02    1.52    1.00
  WS02006240WS02006239 CONDUIT    381.80     0  06:30      1.07    1.20    1.00
  WS02006239WS02006238 CONDUIT    381.34     0  06:30      0.99    1.22    1.00
  WS02006238WS02006235 CONDUIT    381.53     0  06:30      1.05    0.85    1.00
  WS02006235WS02006234 CONDUIT    522.78     0  07:31      1.36    5.52    1.00
  WS02006234WS02006232 CONDUIT    522.60     0  07:30      1.36    1.06    1.00
  WS02006232WS02006231 CONDUIT    522.77     0  07:30      1.36    1.10    1.00
  WS02006231WS02006230 CONDUIT    522.43     0  07:30      1.36    7.92    1.00
  WS02006230WS02006229 CONDUIT    533.71     0  07:30      1.39   11.88    1.00
  WS02006228WS02006109 CONDUIT    914.48     0  03:02      1.82    4.00    1.00
  WS02006116WS02004401 CONDUIT    939.58     0  03:02      1.20    1.30    1.00
  WS02006115WS02006116 CONDUIT    939.98     0  03:02      1.20    1.21    1.00
  WS02006113WS02006111 CONDUIT    915.67     0  03:02      2.59    1.10    1.00
  WS02006112WS02006115 CONDUIT    939.22     0  03:02      1.20    0.55    1.00
  WS02006111WS02006112 CONDUIT    916.12     0  03:03      1.82    0.44    1.00
  WS02006110WS02006113 CONDUIT    915.50     0  03:02      1.82    0.83    1.00
  WS02006109WS02006110 CONDUIT    915.30     0  03:02      1.82    1.76    1.00
  WS02004411WS02004412 CONDUIT    937.38     0  03:03      1.24    1.33    0.92
  WS02004401WS02004402 CONDUIT    940.17     0  03:02      1.20    1.13    1.00
  WS02004413WS02003067 CONDUIT    938.00     0  03:04      1.55    0.40    0.72
  WS02004412WS02004413 CONDUIT    937.85     0  03:03      1.22    0.63    0.95
  WS02004410WS02004411 CONDUIT    937.69     0  03:03      1.23    1.28    0.94
  WS02004409WS02004410 CONDUIT    938.25     0  03:03      1.21    1.21    0.95
  WS02004407WS02004409 CONDUIT    939.44     0  03:03      1.67    0.33    0.68
  WS02004406WS02004407 CONDUIT    939.80     0  03:02      1.60    0.42    0.70
  WS02004405WS02004406 CONDUIT    940.02     0  03:02      1.20    1.85    1.00
  WS02004404WS02004405 CONDUIT    940.48     0  03:02      1.20    9.21    1.00
  WS02004403WS02004404 CONDUIT    940.44     0  03:03      1.20    0.68    1.00
  WS02004402WS02004403 CONDUIT    940.32     0  03:02      1.20    1.35    1.00
  WS02004139WS02001211 CONDUIT    383.54     0  03:21      0.90    0.48    0.64
  WS02004138WS02004139 CONDUIT    394.13     0  00:00      3.62    0.08    0.47
  WS02003067WS02003066 CONDUIT    938.51     0  03:04      1.65    0.30    0.50
  WS02001213WS02003059 CONDUIT    401.56     0  03:21      0.89    0.66    0.87
  WS02001212WS02001213 CONDUIT    397.49     0  03:21      1.32    0.61    0.56
  WS02001211WS02001212 CONDUIT    394.40     0  03:22      0.78    0.30    0.71
  WS02003072WS02003073 CONDUIT   1332.15     0  03:06      1.96    2.88    0.58
  WS02003069WS02003072 CONDUIT   1331.98     0  03:05      1.82    0.64    0.62
  WS02003060WS02003069 CONDUIT   1331.90     0  03:05      2.03    0.52    0.56
  WS02003059WS02003060 CONDUIT    407.16     0  03:20      0.95    0.27    0.77
  HS02004901HS02004770 CONDUIT     37.22     0  03:01      0.10    0.14    0.53
  HS02004876HS02004881 CONDUIT    127.63     0  03:01      1.21    1.36    0.15
  HS02004870HS02004876 CONDUIT    103.09     0  03:01      0.82    0.07    0.18
  HS02004842HS02004848 CONDUIT     16.84     0  03:01      0.07    0.01    0.33
  HS02004837HS02004842 CONDUIT     17.91     0  03:03      0.42    0.01    0.35
  HS02004830HS02004837 CONDUIT     64.64     0  03:01      0.67    0.06    0.14
  HS02004824HS02004830 CONDUIT     64.12     0  03:02      0.62    0.08    0.16
  HS02004817HS02004824 CONDUIT    123.86     0  03:01      0.31    0.06    0.58
  HS02004770HS02004777 CONDUIT    184.96     0  03:01      0.49    0.34    0.54
  HS02004799HS02004480 CONDUIT    444.31     0  03:01      1.07    0.56    0.60
  HS02004792HS02004799 CONDUIT    408.41     0  03:01      1.20    0.25    0.49
  HS02004788HS02004792 CONDUIT    232.94     0  03:02      1.28    0.15    0.26
  HS02004785HS02004788 CONDUIT    181.76     0  03:02      0.91    1.37    0.29
  HS02004777HS02004785 CONDUIT    182.04     0  03:01      0.57    0.22    0.45
  HS02004480HS02004478 CONDUIT    517.30     0  03:01      1.55    2.18    0.48
  HS02004479HS02004480 CONDUIT     77.30     0  03:02      0.30    0.07    0.57
  HS02004862HS02004870 CONDUIT     79.02     0  03:01      0.80    0.09    0.14
  HS02004848HS02004852 CONDUIT     37.84     0  03:01      0.53    0.04    0.10
  HS02004856HS02004862 CONDUIT     54.76     0  03:01      0.59    0.05    0.13
  HS02004852HS02004856 CONDUIT     37.75     0  03:02      0.34    0.04    0.16
  HS02004802HS02004478 CONDUIT    170.13     0  03:04      0.54    0.15    0.48
  HS02004478WS02006287 CONDUIT    677.60     0  03:02      2.11    0.19    0.36
  HS02004817HS02004807 CONDUIT    128.12     0  03:04      0.25    0.08    0.75
  HS02004807HS02004802 CONDUIT    165.31     0  03:04      0.46    0.32    0.53
  YS02001759YS02001757 CONDUIT    620.91     0  02:42      0.79    0.44    1.00
  YS02001762YS02001759 CONDUIT    315.62     0  02:42      0.40    0.36    1.00
  YS02001765YS02001762 CONDUIT    316.10     0  02:42      0.40    0.30    1.00
  YS02001770YS02001767 CONDUIT    315.70     0  02:42      0.40    1.25    1.00
  YS02001774YS02001770 CONDUIT    674.04     0  03:02      0.86    0.43    1.00
  YS02001779YS02001774 CONDUIT    673.94     0  03:04      0.86    0.34    1.00
  YS02001649YS02001757 CONDUIT    878.35     0  02:39      1.12    0.53    1.00
  YS02001767YS02001765 CONDUIT    317.10     0  02:42      0.40    0.40    1.00
  YS02006561YS02001783 CONDUIT   1145.03     0  02:55      2.28    0.59    1.00
  YS02001783YS02001784 CONDUIT   1145.18     0  02:55      2.28    1.58    1.00
  YS02001784YS02001785 CONDUIT   1145.85     0  02:55      2.28    2.67    1.00
  YS02001788YS02001790 CONDUIT   1160.80     0  02:54      2.72    0.86    1.00
  YS02001790YS02001791 CONDUIT   1265.65     0  02:53      3.43    1.38    1.00
  YS02001791YS02001793 CONDUIT   1214.49     0  02:52      6.51    0.52    1.00
  YS02001910YS02001907 CONDUIT    594.48     0  03:01      0.76    0.34    1.00
  YS02001786YS02001788 CONDUIT   1148.54     0  02:55      2.45    2.21    1.00
  YS02001915YS02001910 CONDUIT    594.98     0  03:01      0.76    0.30    1.00
  YS02001918YS02001915 CONDUIT    259.70     0  02:52      0.44    0.14    1.00
  YS02001923YS02001920 CONDUIT    256.46     0  02:52      0.75    0.12    1.00
  YS02001926YS02001923 CONDUIT    229.10     0  02:52      0.86    0.33    0.93
  YS02001929YS02001926 CONDUIT    200.64     0  03:02      0.92    0.10    0.82
  YS02001920YS02001918 CONDUIT    259.47     0  02:52      0.72    0.25    1.00
  YS02001629YS02163301 CONDUIT    203.44     0  02:34      0.26    0.25    1.00
  YS02001619YS02001622 CONDUIT    380.83     0  03:00      0.59    0.56    1.00
  YS02001622YS02001625 CONDUIT    381.00     0  03:00      0.49    0.20    1.00
  YS02001625YS02001629 CONDUIT    195.38     0  02:39      0.25    0.09    1.00
  YS02163301YS02001633 CONDUIT    207.39     0  02:34      0.26    0.19    1.00
  YS02163601YS02164001 CONDUIT    411.02     0  02:39      0.52    0.36    1.00
  YS02164001YS02001641 CONDUIT    411.23     0  02:38      0.52    0.56    1.00
  YS02001641YS02001644 CONDUIT    411.64     0  02:38      0.52    1.33    1.00
  YS02001647YS02001649 CONDUIT    731.41     0  03:21      0.93    0.39    1.00
  YS02006553YS02006556 CONDUIT    719.25     0  02:51      0.92    0.62    1.00
  YS02006556YS02006558 CONDUIT    719.27     0  02:51      0.92    0.57    1.00
  YSB6556YSB1171       CONDUIT     42.82     0  03:02      0.13    0.04    0.82
  YS02001907YS02006553 CONDUIT    719.01     0  02:51      0.80    0.85    1.00
  YS02006558YS02006561 CONDUIT   1145.07     0  02:55      4.05    2.53    1.00
  YS02001633YS02163601 CONDUIT    410.75     0  02:39      0.52    0.43    1.00
  YS02001644YS02001647 CONDUIT    731.07     0  03:21      0.93    0.43    1.00
  YS02001745YS02001748 CONDUIT    558.59     0  02:33      1.46    0.22    0.98
  YS02001748YS02001751 CONDUIT    442.97     0  03:01      1.03    0.22    1.00
  YS02001751YS02001754 CONDUIT    443.27     0  03:01      0.88    0.21    1.00
  YS02001754YS02001757 CONDUIT    443.33     0  03:01      0.56    0.18    1.00
  YS02001882YS02001884 CONDUIT     14.43     0  04:15      0.12    0.02    1.00
  YS02001884YS02001887 CONDUIT     20.61     0  02:35      0.08    0.03    1.00
  YS02001890YS02001895 CONDUIT    517.43     0  03:03      0.66    0.24    1.00
  YS02001895YS02001898 CONDUIT    517.92     0  02:59      0.66    0.90    1.00
  YS02001898YS02001901 CONDUIT    517.81     0  03:03      0.66    0.33    1.00
  YS02001901YS02001904 CONDUIT    517.57     0  02:59      0.66    0.80    1.00
  YS02001904YS02001907 CONDUIT    518.24     0  02:58      0.66    0.18    1.00
  YS02001887YS02001890 CONDUIT    679.32     0  03:01      0.86    1.16    1.00
  YS02001652YS02001649 CONDUIT    498.05     0  03:01      0.63    0.25    1.00
  YS02001655YS02001652 CONDUIT    497.59     0  03:01      0.94    0.24    1.00
  YS02001658YS02001655 CONDUIT    497.21     0  03:01      1.18    0.21    1.00
  YS02001661YS02001658 CONDUIT    609.17     0  02:29      1.52    0.24    1.00
  YS02001664YS02001661 CONDUIT    662.54     0  02:43      1.42    0.21    0.77
  YSB1154YSB6556       CONDUIT     43.26     0  03:01      0.18    0.08    0.73
  YSB1174YSB1171       CONDUIT     36.63     0  03:01      0.11    0.06    0.85
  YSB1171HS02004479    CONDUIT     75.45     0  03:02      0.54    0.05    0.68
  HS02004881HS02006253 CONDUIT    140.46     0  03:01      2.15    0.03    0.54
  YS02001793JiankangQianchi CONDUIT   1177.05     0  02:51     16.51    0.09    1.00
  YS02001757CaochengTiaoxuchi CONDUIT   1679.56     0  02:40      2.17    0.74    1.00
  WSF200WS02003060     CONDUIT    939.01     0  03:04      1.93    0.21    0.45
  1                    CONDUIT   1334.30     0  03:07      3.59    0.46    0.48
  CC-Pump-1            PUMP       200.00     0  03:00              1.00
  CC-Pump-2            PUMP       200.00     0  06:20              1.00
  JK-Pump-1            PUMP       300.00     0  02:00              1.00
  JK-Pump-2            PUMP       683.00     0  02:30              1.00
  XR-Pump-1            PUMP        95.00     0  00:00              1.00
  XR-Pump-2            PUMP        95.00     0  00:00              1.00
  XR-Pump-3            PUMP        95.00     0  00:00              1.00
  XR-Pump-4            PUMP        95.00     0  00:00              1.00
  
  
  ***************************
  Flow Classification Summary
  ***************************
  
  -------------------------------------------------------------------------------------
                      Adjusted    ---------- Fraction of Time in Flow Class ---------- 
                       /Actual         Up    Down  Sub   Sup   Up    Down  Norm  Inlet 
  Conduit               Length    Dry  Dry   Dry   Crit  Crit  Crit  Crit  Ltd   Ctrl  
  -------------------------------------------------------------------------------------
  WS02003066WSF200        1.00   0.01  0.05  0.00  0.00  0.94  0.00  0.00  0.54  0.00
  WS02006287WS02006284    1.00   0.03  0.02  0.00  0.64  0.32  0.00  0.00  0.65  0.00
  WS02006284WS02006280    1.00   0.04  0.00  0.00  0.00  0.00  0.00  0.96  0.00  0.00
  WS02006280WS02006229    1.00   0.04  0.00  0.00  0.01  0.02  0.00  0.93  0.01  0.00
  WS02006229WS02006228    1.00   0.00  0.00  0.00  1.00  0.00  0.00  0.00  0.00  0.00
  WS02006256WS02006235    1.00   0.03  0.00  0.00  0.97  0.00  0.00  0.00  0.00  0.00
  WS02006253WS02006251    1.00   0.01  0.02  0.00  0.97  0.00  0.01  0.00  0.00  0.00
  WS02006252WS02006251    1.00   0.18  0.00  0.00  0.04  0.00  0.78  0.00  0.00  0.00
  WS02006251WS02006249    1.00   0.00  0.00  0.00  1.00  0.00  0.00  0.00  0.29  0.00
  WS02006249WS02006248    1.00   0.00  0.00  0.00  0.90  0.00  0.10  0.00  0.00  0.00
  WS02006248WS02006247    1.00   0.01  0.00  0.00  0.98  0.00  0.00  0.01  0.15  0.00
  WS02006247WS02006245    1.00   0.01  0.00  0.00  0.96  0.00  0.00  0.03  0.00  0.00
  WS02006245WS02006243    1.00   0.01  0.00  0.00  0.95  0.00  0.00  0.04  0.00  0.00
  WS02006243WS02006242    1.00   0.01  0.00  0.00  0.97  0.00  0.00  0.02  0.12  0.00
  WS02006242WS02006240    1.00   0.01  0.02  0.00  0.96  0.00  0.00  0.00  0.00  0.00
  WS02006240WS02006239    1.00   0.03  0.00  0.00  0.95  0.00  0.00  0.02  0.01  0.00
  WS02006239WS02006238    1.00   0.03  0.00  0.00  0.97  0.00  0.00  0.00  0.00  0.00
  WS02006238WS02006235    1.00   0.03  0.00  0.00  0.97  0.00  0.00  0.00  0.00  0.00
  WS02006235WS02006234    1.00   0.03  0.00  0.00  0.96  0.00  0.01  0.00  0.00  0.00
  WS02006234WS02006232    1.00   0.03  0.00  0.00  0.97  0.00  0.00  0.00  0.00  0.00
  WS02006232WS02006231    1.00   0.03  0.00  0.00  0.97  0.00  0.00  0.00  0.00  0.00
  WS02006231WS02006230    1.00   0.03  0.00  0.00  0.62  0.00  0.35  0.00  0.00  0.00
  WS02006230WS02006229    1.00   0.00  0.00  0.00  0.99  0.00  0.00  0.01  0.00  0.00
  WS02006228WS02006109    1.00   0.00  0.00  0.00  1.00  0.00  0.00  0.00  0.00  0.00
  WS02006116WS02004401    1.00   0.03  0.00  0.00  0.97  0.00  0.00  0.00  0.00  0.00
  WS02006115WS02006116    1.00   0.03  0.00  0.00  0.96  0.00  0.00  0.01  0.00  0.00
  WS02006113WS02006111    1.00   0.02  0.00  0.00  0.05  0.94  0.00  0.00  0.18  0.00
  WS02006112WS02006115    1.00   0.02  0.01  0.00  0.97  0.00  0.00  0.00  0.00  0.00
  WS02006111WS02006112    1.00   0.02  0.00  0.00  0.98  0.00  0.00  0.00  0.83  0.00
  WS02006110WS02006113    1.00   0.00  0.01  0.00  0.98  0.00  0.00  0.00  0.00  0.00
  WS02006109WS02006110    1.00   0.00  0.00  0.00  0.99  0.00  0.00  0.00  0.00  0.00
  WS02004411WS02004412    1.00   0.05  0.00  0.00  0.95  0.00  0.00  0.00  0.00  0.00
  WS02004401WS02004402    1.00   0.03  0.00  0.00  0.97  0.00  0.00  0.00  0.01  0.00
  WS02004413WS02003067    1.00   0.05  0.01  0.00  0.00  0.00  0.94  0.00  0.00  0.00
  WS02004412WS02004413    1.00   0.05  0.00  0.00  0.95  0.00  0.00  0.00  0.01  0.00
  WS02004410WS02004411    1.00   0.04  0.00  0.00  0.96  0.00  0.00  0.00  0.00  0.00
  WS02004409WS02004410    1.00   0.04  0.00  0.00  0.96  0.00  0.00  0.00  0.00  0.00
  WS02004407WS02004409    1.00   0.04  0.00  0.00  0.95  0.00  0.00  0.00  0.83  0.00
  WS02004406WS02004407    1.00   0.00  0.04  0.00  0.96  0.00  0.00  0.00  0.00  0.00
  WS02004405WS02004406    1.00   0.00  0.00  0.00  1.00  0.00  0.00  0.00  0.04  0.00
  WS02004404WS02004405    1.00   0.00  0.00  0.00  1.00  0.00  0.00  0.00  0.01  0.00
  WS02004403WS02004404    1.00   0.00  0.03  0.00  0.97  0.00  0.00  0.00  0.03  0.00
  WS02004402WS02004403    1.00   0.03  0.00  0.00  0.97  0.00  0.00  0.00  0.00  0.00
  WS02004139WS02001211    1.00   0.00  0.00  0.00  1.00  0.00  0.00  0.00  0.00  0.00
  WS02004138WS02004139    1.00   0.00  0.00  0.00  1.00  0.00  0.00  0.00  1.00  0.00
  WS02003067WS02003066    1.00   0.06  0.00  0.00  0.94  0.00  0.00  0.00  0.00  0.00
  WS02001213WS02003059    1.00   0.00  0.00  0.00  1.00  0.00  0.00  0.00  0.00  0.00
  WS02001212WS02001213    1.00   0.00  0.00  0.00  0.91  0.00  0.09  0.00  0.00  0.00
  WS02001211WS02001212    1.00   0.00  0.00  0.00  1.00  0.00  0.00  0.00  0.00  0.00
  WS02003072WS02003073    1.00   0.00  0.00  0.00  0.00  0.00  0.00  1.00  0.00  0.00
  WS02003069WS02003072    1.00   0.00  0.00  0.00  1.00  0.00  0.00  0.00  0.13  0.00
  WS02003060WS02003069    1.00   0.00  0.00  0.00  0.99  0.01  0.00  0.00  0.08  0.00
  WS02003059WS02003060    1.00   0.00  0.00  0.00  1.00  0.00  0.00  0.00  0.00  0.00
  HS02004901HS02004770    1.00   0.03  0.00  0.00  0.97  0.00  0.00  0.00  0.00  0.00
  HS02004876HS02004881    1.00   0.00  0.00  0.00  0.91  0.08  0.00  0.00  0.00  0.00
  HS02004870HS02004876    1.00   0.00  0.00  0.00  1.00  0.00  0.00  0.00  0.95  0.00
  HS02004842HS02004848    1.00   0.00  0.03  0.00  0.97  0.00  0.00  0.00  0.54  0.00
  HS02004837HS02004842    1.00   0.00  0.00  0.00  1.00  0.00  0.00  0.00  0.11  0.00
  HS02004830HS02004837    1.00   0.00  0.00  0.00  1.00  0.00  0.00  0.00  0.99  0.00
  HS02004824HS02004830    1.00   0.00  0.00  0.00  1.00  0.00  0.00  0.00  0.01  0.00
  HS02004817HS02004824    1.00   0.00  0.00  0.00  1.00  0.00  0.00  0.00  0.97  0.00
  HS02004770HS02004777    1.00   0.00  0.03  0.00  0.97  0.00  0.00  0.00  0.03  0.00
  HS02004799HS02004480    1.00   0.00  0.01  0.00  0.96  0.00  0.03  0.00  0.00  0.00
  HS02004792HS02004799    1.00   0.00  0.00  0.00  1.00  0.00  0.00  0.00  0.98  0.00
  HS02004788HS02004792    1.00   0.00  0.00  0.00  1.00  0.00  0.00  0.00  0.98  0.00
  HS02004785HS02004788    1.00   0.00  0.00  0.00  1.00  0.00  0.00  0.00  0.00  0.00
  HS02004777HS02004785    1.00   0.00  0.00  0.00  1.00  0.00  0.00  0.00  0.12  0.00
  HS02004480HS02004478    1.00   0.03  0.00  0.00  0.69  0.00  0.00  0.28  0.00  0.00
  HS02004479HS02004480    1.00   0.01  0.00  0.00  0.99  0.00  0.00  0.00  0.12  0.00
  HS02004862HS02004870    1.00   0.00  0.00  0.00  1.00  0.00  0.00  0.00  0.04  0.00
  HS02004848HS02004852    1.00   0.03  0.00  0.00  0.97  0.00  0.00  0.00  0.64  0.00
  HS02004856HS02004862    1.00   0.00  0.05  0.00  0.95  0.00  0.00  0.00  0.83  0.00
  HS02004852HS02004856    1.00   0.03  0.00  0.00  0.96  0.00  0.00  0.00  0.81  0.00
  HS02004802HS02004478    1.00   0.03  0.00  0.00  0.96  0.00  0.00  0.00  0.02  0.00
  HS02004478WS02006287    1.00   0.04  0.00  0.00  0.77  0.19  0.00  0.00  0.65  0.00
  HS02004817HS02004807    1.00   0.00  0.03  0.00  0.97  0.00  0.00  0.00  0.01  0.00
  HS02004807HS02004802    1.00   0.03  0.00  0.00  0.96  0.00  0.00  0.01  0.00  0.00
  YS02001759YS02001757    1.00   0.00  0.00  0.00  1.00  0.00  0.00  0.00  0.16  0.00
  YS02001762YS02001759    1.00   0.00  0.00  0.00  1.00  0.00  0.00  0.00  0.03  0.00
  YS02001765YS02001762    1.00   0.00  0.00  0.00  1.00  0.00  0.00  0.00  0.14  0.00
  YS02001770YS02001767    1.00   0.00  0.00  0.00  1.00  0.00  0.00  0.00  0.00  0.00
  YS02001774YS02001770    1.00   0.00  0.03  0.00  0.96  0.00  0.00  0.00  0.03  0.00
  YS02001779YS02001774    1.00   0.00  0.00  0.00  1.00  0.00  0.00  0.00  0.19  0.00
  YS02001649YS02001757    1.00   0.00  0.00  0.00  1.00  0.00  0.00  0.00  0.16  0.00
  YS02001767YS02001765    1.00   0.00  0.00  0.00  1.00  0.00  0.00  0.00  0.00  0.00
  YS02006561YS02001783    1.00   0.05  0.00  0.00  0.38  0.57  0.00  0.00  0.46  0.00
  YS02001783YS02001784    1.00   0.00  0.05  0.00  0.95  0.00  0.00  0.00  0.01  0.00
  YS02001784YS02001785    1.00   0.00  0.00  0.00  1.00  0.00  0.00  0.00  0.18  0.00
  YS02001788YS02001790    1.00   0.00  0.00  0.00  0.41  0.59  0.00  0.00  0.38  0.00
  YS02001790YS02001791    1.00   0.00  0.00  0.00  0.36  0.64  0.00  0.00  0.46  0.00
  YS02001791YS02001793    1.00   0.00  0.00  0.00  0.40  0.60  0.00  0.00  0.03  0.00
  YS02001910YS02001907    1.00   0.00  0.00  0.00  0.99  0.00  0.00  0.01  0.12  0.00
  YS02001786YS02001788    1.00   0.00  0.00  0.00  0.41  0.59  0.00  0.00  0.00  0.00
  YS02001915YS02001910    1.00   0.00  0.00  0.00  0.99  0.01  0.00  0.00  0.16  0.00
  YS02001918YS02001915    1.00   0.00  0.00  0.00  0.99  0.00  0.00  0.00  0.54  0.00
  YS02001923YS02001920    1.00   0.00  0.00  0.00  1.00  0.00  0.00  0.00  0.82  0.00
  YS02001926YS02001923    1.00   0.00  0.02  0.00  0.16  0.00  0.82  0.00  0.00  0.00
  YS02001929YS02001926    1.00   0.00  0.03  0.00  0.97  0.00  0.00  0.00  0.75  0.00
  YS02001920YS02001918    1.00   0.00  0.00  0.00  1.00  0.00  0.00  0.00  0.00  0.00
  YS02001629YS02163301    1.00   0.04  0.00  0.00  0.96  0.00  0.00  0.00  0.00  0.00
  YS02001619YS02001622    1.00   0.03  0.00  0.00  0.97  0.00  0.00  0.00  0.00  0.00
  YS02001622YS02001625    1.00   0.03  0.00  0.00  0.97  0.00  0.00  0.00  0.05  0.00
  YS02001625YS02001629    1.00   0.03  0.02  0.00  0.93  0.00  0.02  0.00  0.00  0.00
  YS02163301YS02001633    1.00   0.00  0.04  0.00  0.96  0.00  0.00  0.00  0.00  0.00
  YS02163601YS02164001    1.00   0.00  0.02  0.00  0.98  0.00  0.00  0.00  0.00  0.00
  YS02164001YS02001641    1.00   0.00  0.02  0.00  0.98  0.00  0.00  0.00  0.06  0.00
  YS02001641YS02001644    1.00   0.00  0.00  0.00  1.00  0.00  0.00  0.00  0.00  0.00
  YS02001647YS02001649    1.00   0.00  0.05  0.00  0.95  0.00  0.00  0.00  0.01  0.00
  YS02006553YS02006556    1.00   0.00  0.00  0.00  1.00  0.00  0.00  0.00  0.03  0.00
  YS02006556YS02006558    1.00   0.00  0.00  0.00  1.00  0.00  0.00  0.00  0.00  0.00
  YSB6556YSB1171          1.00   0.01  0.02  0.00  0.97  0.00  0.00  0.00  0.00  0.00
  YS02001907YS02006553    1.00   0.00  0.01  0.00  0.99  0.00  0.00  0.00  0.00  0.00
  YS02006558YS02006561    1.00   0.05  0.00  0.00  0.15  0.80  0.00  0.00  0.45  0.00
  YS02001633YS02163601    1.00   0.00  0.00  0.00  1.00  0.00  0.00  0.00  0.15  0.00
  YS02001644YS02001647    1.00   0.00  0.05  0.00  0.95  0.00  0.00  0.00  0.00  0.00
  YS02001745YS02001748    1.00   0.00  0.00  0.00  0.91  0.01  0.00  0.09  0.04  0.00
  YS02001748YS02001751    1.00   0.00  0.00  0.00  0.97  0.03  0.00  0.00  0.15  0.00
  YS02001751YS02001754    1.00   0.00  0.00  0.00  0.94  0.00  0.00  0.06  0.02  0.00
  YS02001754YS02001757    1.00   0.00  0.00  0.00  1.00  0.00  0.00  0.00  0.18  0.00
  YS02001882YS02001884    1.00   0.04  0.00  0.00  0.96  0.00  0.00  0.00  0.00  0.00
  YS02001884YS02001887    1.00   0.01  0.01  0.00  0.97  0.00  0.00  0.00  0.00  0.00
  YS02001890YS02001895    1.00   0.00  0.04  0.00  0.96  0.00  0.00  0.00  0.00  0.00
  YS02001895YS02001898    1.00   0.04  0.00  0.00  0.94  0.00  0.01  0.00  0.00  0.00
  YS02001898YS02001901    1.00   0.04  0.00  0.00  0.96  0.00  0.00  0.00  0.01  0.00
  YS02001901YS02001904    1.00   0.05  0.00  0.00  0.95  0.00  0.00  0.00  0.00  0.00
  YS02001904YS02001907    1.00   0.00  0.04  0.00  0.95  0.00  0.00  0.00  0.00  0.00
  YS02001887YS02001890    1.00   0.00  0.00  0.00  0.99  0.00  0.01  0.00  0.00  0.00
  YS02001652YS02001649    1.00   0.00  0.00  0.00  1.00  0.00  0.00  0.00  0.17  0.00
  YS02001655YS02001652    1.00   0.00  0.00  0.00  0.94  0.00  0.00  0.06  0.02  0.00
  YS02001658YS02001655    1.00   0.00  0.04  0.00  0.93  0.03  0.00  0.00  0.10  0.00
  YS02001661YS02001658    1.00   0.04  0.00  0.00  0.90  0.06  0.00  0.00  0.11  0.00
  YS02001664YS02001661    1.00   0.03  0.00  0.00  0.92  0.04  0.00  0.00  0.20  0.00
  YSB1154YSB6556          1.00   0.03  0.00  0.00  0.97  0.00  0.00  0.00  0.02  0.00
  YSB1174YSB1171          1.00   0.01  0.01  0.00  0.98  0.00  0.00  0.00  0.00  0.00
  YSB1171HS02004479       1.00   0.01  0.00  0.00  0.99  0.00  0.00  0.00  0.10  0.00
  HS02004881HS02006253    1.00   0.01  0.00  0.00  0.61  0.03  0.00  0.34  0.44  0.00
  YS02001793JiankangQianchi    1.00   0.00  0.00  0.00  0.70  0.30  0.00  0.00  0.43  0.00
  YS02001757CaochengTiaoxuchi    1.00   0.00  0.07  0.00  0.93  0.00  0.00  0.00  0.00  0.00
  WSF200WS02003060        1.00   0.00  0.01  0.00  0.99  0.00  0.00  0.00  0.54  0.00
  1                       1.00   0.00  0.00  0.00  0.00  1.00  0.00  0.00  0.43  0.00
  
  
  *************************
  Conduit Surcharge Summary
  *************************
  
  ----------------------------------------------------------------------------
                                                           Hours        Hours 
                         --------- Hours Full --------   Above Full   Capacity
  Conduit                Both Ends  Upstream  Dnstream   Normal Flow   Limited
  ----------------------------------------------------------------------------
  WS02006229WS02006228        2.69      2.85      2.69      4.38         2.69
  WS02006256WS02006235        5.87      5.88      6.82      4.64         0.01
  WS02006253WS02006251        0.66      0.66      0.72      0.01         0.01
  WS02006252WS02006251        0.66      0.66      0.98      0.59         0.01
  WS02006251WS02006249        0.66      0.67      0.71      0.29         0.11
  WS02006249WS02006248        0.65      0.65      0.71      2.25         0.01
  WS02006248WS02006247        0.69      0.69      0.80      0.01         0.01
  WS02006247WS02006245        0.77      0.86      0.77      2.94         0.65
  WS02006245WS02006243        0.83      0.84      1.01      0.22         0.07
  WS02006243WS02006242        1.07      1.07      1.54      0.01         0.01
  WS02006242WS02006240        1.33      1.33      1.86      0.65         0.01
  WS02006240WS02006239        1.35      1.39      1.65      0.37         0.10
  WS02006239WS02006238        1.98      2.03      2.20      0.40         0.19
  WS02006238WS02006235        2.14      2.14      2.40      0.01         0.02
  WS02006235WS02006234        1.71      1.71      2.06      5.82         0.01
[...]
  YS02001770YS02001767        5.69      5.69      5.69      0.31         0.61
  YS02001774YS02001770        5.68      5.68      5.74      0.01         0.01
  YS02001779YS02001774        5.56      5.56      5.74      0.01         0.01
  YS02001649YS02001757        5.75      5.75      5.86      0.01         0.01
  YS02001767YS02001765        5.69      5.69      5.72      0.01         0.01
  YS02006561YS02001783        0.86      0.86      1.34      0.01         0.01
  YS02001783YS02001784        1.29      1.34      1.29      1.57         1.18
  YS02001784YS02001785        1.10      1.29      1.11      2.50         1.10
  YS02001788YS02001790        0.92      0.92      1.74      0.01         0.01
  YS02001790YS02001791        1.74      1.74      1.84      1.12         0.89
  YS02001791YS02001793        1.84      1.84      2.27      0.01         0.01
  YS02001910YS02001907        1.24      1.24      1.91      0.01         0.01
  YS02001786YS02001788        0.91      1.11      0.92      2.06         0.91
  YS02001915YS02001910        1.04      1.04      1.24      0.01         0.01
  YS02001918YS02001915        0.85      0.85      1.04      0.01         0.01
  YS02001923YS02001920        0.71      0.71      0.88      0.01         0.01
  YS02001920YS02001918        0.85      0.85      0.88      0.01         0.01
  YS02001629YS02163301        5.67      5.67      5.68      0.01         0.01
  YS02001619YS02001622        5.38      5.38      5.40      0.01         0.01
  YS02001622YS02001625        5.40      5.40      5.64      0.01         0.01
  YS02001625YS02001629        5.38      5.38      5.64      0.01         0.01
  YS02163301YS02001633        5.68      5.68      5.72      0.01         0.01
  YS02163601YS02164001        5.72      5.72      5.75      0.01         0.01
  YS02164001YS02001641        5.72      5.72      5.73      0.01         0.03
  YS02001641YS02001644        5.73      5.73      5.73      1.72         2.02
  YS02001647YS02001649        5.62      5.62      5.75      0.01         0.01
  YS02006553YS02006556        1.47      1.47      1.99      0.01         0.01
  YS02006556YS02006558        1.66      1.66      2.07      0.01         0.01
  YSB6556YSB1171              0.01      0.01      0.07      0.01         0.01
  YS02001907YS02006553        2.52      2.52      2.75      0.01         0.01
  YS02006558YS02006561        0.97      1.43      0.97      2.36         0.97
  YS02001633YS02163601        5.71      5.71      5.75      0.01         0.01
  YS02001644YS02001647        5.62      5.62      5.73      0.01         0.01
  YS02001745YS02001748        0.01      0.01      5.22      0.01         0.01
  YS02001748YS02001751        5.27      5.27      5.38      0.01         0.01
  YS02001751YS02001754        5.38      5.38      5.57      0.01         0.01
  YS02001754YS02001757        5.61      5.61      5.86      0.01         0.01
  YS02001882YS02001884        1.06      1.06      1.09      0.01         0.01
  YS02001884YS02001887        1.14      1.14      1.17      0.01         0.01
  YS02001890YS02001895        1.03      1.03      1.26      0.01         0.01
  YS02001895YS02001898        1.02      1.02      1.03      0.01         0.01
  YS02001898YS02001901        1.04      1.04      1.13      0.01         0.01
  YS02001901YS02001904        1.11      1.11      1.13      0.01         0.01
  YS02001904YS02001907        1.11      1.11      2.02      0.01         0.01
  YS02001887YS02001890        1.19      1.19      1.22      0.16         0.01
  YS02001652YS02001649        5.63      5.63      5.75      0.01         0.01
  YS02001655YS02001652        5.39      5.39      5.61      0.01         0.01
  YS02001658YS02001655        5.25      5.25      5.39      0.01         0.01
  YS02001661YS02001658        0.15      0.15      5.25      0.01         0.01
  YS02001664YS02001661        0.01      0.01      1.36      0.01         0.01
  HS02004881HS02006253        0.01      0.01      0.38      0.01         0.01
  YS02001793JiankangQianchi        2.16      2.16      5.21      0.01         0.01
  YS02001757CaochengTiaoxuchi        5.11      5.11      5.86      0.01         0.01
  
  
  ***************
  Pumping Summary
  ***************
  
  ---------------------------------------------------------------------------------------------------------
                                                  Min       Avg       Max     Total     Power    % Time Off
                        Percent   Number of      Flow      Flow      Flow    Volume     Usage    Pump Curve
  Pump                 Utilized   Start-Ups       LPS       LPS       LPS  10^6 ltr     Kw-hr    Low   High
  ---------------------------------------------------------------------------------------------------------
  CC-Pump-1               51.05           5      0.00    153.84    200.00     2.100      1.65    0.0    0.0
  CC-Pump-2               14.89           2      0.00    107.44    200.00     0.480      0.56    0.0    0.0
  JK-Pump-1               65.96           4      0.00    221.24    300.00     4.050     57.83    0.0    0.0
  JK-Pump-2               53.19           5      0.00    390.30    683.00     5.789     79.90    0.0   96.9
  XR-Pump-1              100.00           1      0.00     95.00     95.00     2.679     27.42    0.0    0.0
  XR-Pump-2               97.87           2      0.00     92.56     95.00     2.451     22.57    0.0    0.0
  XR-Pump-3               95.74           3      0.00     92.58     95.00     2.394     21.31    0.0    0.0
  XR-Pump-4               95.74           3      0.00     92.58     95.00     2.394     21.31    0.0    0.0
  
  
  ***************************
  Link Pollutant Load Summary
  ***************************
  
  ------------------------------------------------------------------------------------------
                                 COD            SS            TN            TP         NH4-N
  Link                            kg            kg            kg            kg            kg
  ------------------------------------------------------------------------------------------
  WS02003066WSF200           814.577      1521.366        21.615         1.909        11.421
  WS02006287WS02006284       319.483       608.122        10.315         1.015         5.679
  WS02006284WS02006280       319.968       608.917        10.361         1.021         5.708
  WS02006280WS02006229       319.909       608.797        10.359         1.020         5.706
  WS02006229WS02006228       817.867      1527.353        21.223         1.846        11.148
  WS02006256WS02006235       249.716       458.190         5.626         0.443         2.860
  WS02006253WS02006251        61.045       120.121         1.345         0.101         0.667
  WS02006252WS02006251       223.038       407.673         4.649         0.336         2.286
  WS02006251WS02006249       277.157       515.259         5.865         0.429         2.893
  WS02006249WS02006248       257.757       477.413         5.468         0.401         2.699
  WS02006248WS02006247       257.411       476.776         5.465         0.401         2.699
  WS02006247WS02006245       256.914       475.856         5.460         0.401         2.697
  WS02006245WS02006243       256.265       474.724         5.449         0.400         2.692
  WS02006243WS02006242       255.888       474.039         5.446         0.400         2.692
  WS02006242WS02006240       254.741       472.020         5.405         0.396         2.668
  WS02006240WS02006239       254.554       471.674         5.404         0.396         2.668
  WS02006239WS02006238       254.854       472.057         5.429         0.399         2.684
  WS02006238WS02006235       255.255       472.598         5.452         0.402         2.698
  WS02006235WS02006234       502.023       925.712        10.975         0.835         5.500
  WS02006234WS02006232       501.290       924.386        10.960         0.834         5.493
  WS02006232WS02006231       500.419       922.811        10.939         0.832         5.482
  WS02006231WS02006230       499.579       921.269        10.922         0.831         5.474
  WS02006230WS02006229       498.869       920.113        10.897         0.828         5.460
  WS02006228WS02006109       816.466      1524.853        21.183         1.842        11.126
  WS02006116WS02004401       827.939      1545.536        21.937         1.935        11.586
  WS02006115WS02006116       829.384      1548.118        21.972         1.938        11.604
  WS02006113WS02006111       821.268      1531.872        21.870         1.932        11.564
  WS02006112WS02006115       830.739      1550.477        22.023         1.943        11.632
  WS02006111WS02006112       820.850      1531.171        21.862         1.931        11.560
  WS02006110WS02006113       821.928      1533.050        21.895         1.934        11.578
  WS02006109WS02006110       823.435      1535.696        21.962         1.941        11.618
  WS02004411WS02004412       817.993      1527.426        21.731         1.921        11.485
  WS02004401WS02004402       826.639      1543.239        21.895         1.931        11.563
  WS02004413WS02003067       815.459      1523.024        21.634         1.911        11.430
  WS02004412WS02004413       816.746      1525.205        21.696         1.917        11.466
  WS02004410WS02004411       819.139      1529.502        21.760         1.923        11.500
  WS02004409WS02004410       820.231      1531.459        21.792         1.926        11.518
  WS02004407WS02004409       821.282      1533.375        21.816         1.928        11.530
  WS02004406WS02004407       821.801      1534.376        21.822         1.928        11.531
  WS02004405WS02004406       823.807      1537.864        21.924         1.939        11.592
  WS02004404WS02004405       824.846      1539.845        21.914         1.936        11.582
  WS02004403WS02004404       824.363      1539.187        21.827         1.925        11.526
  WS02004402WS02004403       825.364      1540.956        21.860         1.928        11.544
  WS02004139WS02001211      1382.469      2295.378       112.236        13.700        69.183
  WS02004138WS02004139      1388.761      2305.893       112.720        13.759        69.480
  WS02003067WS02003066       814.789      1521.751        21.622         1.910        11.425
  WS02001213WS02003059      1415.420      2347.127       115.658        14.132        71.334
  WS02001212WS02001213      1424.462      2362.121       116.388        14.221        71.784
  WS02001211WS02001212      1426.701      2365.777       116.582        14.245        71.904
  WS02003072WS02003073      2329.434      4026.305       147.212        17.290        88.983
  WS02003069WS02003072      2334.586      4034.679       147.643        17.343        89.250
  WS02003060WS02003069      2337.288      4039.363       147.791        17.359        89.337
  WS02003059WS02003060      1412.132      2341.574       115.422        14.104        71.190
  HS02004901HS02004770        13.094        25.473         0.248         0.019         0.116
  HS02004876HS02004881        45.515        90.349         0.999         0.073         0.491
  HS02004870HS02004876        34.382        68.104         0.798         0.060         0.395
  HS02004842HS02004848         6.456        12.343         0.134         0.009         0.062
  HS02004837HS02004842        11.057        19.637         0.603         0.068         0.356
  HS02004830HS02004837        70.297       122.725         4.643         0.552         2.827
  HS02004824HS02004830        71.068       123.980         4.715         0.561         2.871
  HS02004817HS02004824        97.161       176.403         5.254         0.596         3.135
  HS02004770HS02004777        49.663        97.714         1.021         0.069         0.472
  HS02004799HS02004480       162.323       310.837         4.263         0.379         2.209
  HS02004792HS02004799       147.273       280.122         4.028         0.367         2.105
  HS02004788HS02004792        82.817       157.687         2.666         0.255         1.440
  HS02004785HS02004788        51.121       100.050         1.172         0.089         0.567
  HS02004777HS02004785        50.446        98.943         1.112         0.081         0.530
  HS02004480HS02004478       204.823       395.191         4.972         0.429         2.543
  HS02004479HS02004480        46.122        90.104         1.037         0.091         0.538
  HS02004862HS02004870        25.799        50.340         0.628         0.050         0.314
  HS02004848HS02004852        10.251        19.884         0.210         0.014         0.097
  HS02004856HS02004862        17.524        34.749         0.350         0.023         0.164
  HS02004852HS02004856        10.255        19.889         0.210         0.014         0.097
  HS02004802HS02004478       115.337       214.041         5.397         0.592         3.169
  HS02004478WS02006287       319.696       608.492        10.332         1.017         5.689
  HS02004817HS02004807        95.855       174.307         5.130         0.581         3.057
  HS02004807HS02004802       115.596       214.448         5.430         0.596         3.189
  YS02001759YS02001757       319.491       586.549         6.380         0.443         3.118
  YS02001762YS02001759       185.540       340.973         3.862         0.272         1.904
  YS02001765YS02001762       186.818       344.162         3.903         0.275         1.927
  YS02001770YS02001767       190.434       353.391         3.816         0.257         1.856
  YS02001774YS02001770       295.975       573.418         5.700         0.381         2.757
  YS02001779YS02001774       295.148       571.777         5.782         0.394         2.815
  YS02001649YS02001757       385.943       698.206         7.793         0.534         3.754
  YS02001767YS02001765       188.792       348.692         3.950         0.279         1.951
  YS02006561YS02001783      1033.004      1915.579        21.631         1.614        10.762
  YS02001783YS02001784      1032.887      1915.391        21.627         1.613        10.760
  YS02001784YS02001785      1040.210      1927.121        22.340         1.703        11.206
  YS02001788YS02001790      1040.769      1928.017        22.412         1.712        11.251
  YS02001790YS02001791      1041.834      1929.786        22.512         1.725        11.314
  YS02001791YS02001793      1041.733      1929.596        22.507         1.724        11.311
  YS02001910YS02001907       391.186       721.526         9.384         0.718         4.808
  YS02001786YS02001788      1040.406      1927.458        22.367         1.706        11.224
  YS02001915YS02001910       391.266       721.657         9.337         0.711         4.776
  YS02001918YS02001915       186.156       328.385         5.123         0.466         2.758
  YS02001923YS02001920       165.499       294.957         3.164         0.222         1.535
  YS02001926YS02001923       164.467       293.228         3.097         0.214         1.495
  YS02001929YS02001926       164.240       292.852         3.066         0.210         1.475
  YS02001920YS02001918       185.275       326.587         5.076         0.461         2.731
  YS02001629YS02163301        96.132       169.986         2.029         0.131         0.946
  YS02001619YS02001622       175.874       321.134         3.602         0.236         1.684
  YS02001622YS02001625       174.685       319.242         3.573         0.234         1.671
  YS02001625YS02001629        97.199       171.726         2.053         0.132         0.957
  YS02163301YS02001633        96.517       170.903         2.032         0.132         0.949
  YS02163601YS02164001       405.669       733.047         7.898         0.562         3.783
  YS02164001YS02001641       405.132       732.135         7.877         0.560         3.772
  YS02001641YS02001644       405.187       732.145         7.873         0.560         3.769
  YS02001647YS02001649       488.704       896.506         9.745         0.673         4.663
  YS02006553YS02006556       699.117      1286.095        15.005         1.148         7.549
  YS02006556YS02006558       699.046      1285.944        14.976         1.144         7.530
  YSB6556YSB1171              26.522        51.968         0.537         0.045         0.272
  YS02001907YS02006553       699.251      1286.373        15.014         1.149         7.554
  YS02006558YS02006561      1033.027      1915.629        21.630         1.614        10.762
  YS02001633YS02163601       406.398       734.185         7.878         0.558         3.767
  YS02001644YS02001647       493.960       906.085         9.824         0.679         4.698
  YS02001745YS02001748       249.028       465.843         5.407         0.369         2.676
  YS02001748YS02001751       247.524       462.886         5.481         0.382         2.731
  YS02001751YS02001754       246.550       461.283         5.463         0.382         2.723
  YS02001754YS02001757       247.298       462.395         5.628         0.404         2.830
  YS02001882YS02001884         3.149         5.450         0.064         0.005         0.032
  YS02001884YS02001887         6.783        12.015         0.134         0.010         0.067
  YS02001890YS02001895       450.986       846.489         8.302         0.624         4.050
  YS02001895YS02001898       450.849       846.320         8.296         0.624         4.046
  YS02001898YS02001901       450.629       845.940         8.291         0.623         4.044
  YS02001901YS02001904       450.502       845.765         8.298         0.625         4.049
  YS02001904YS02001907       450.714       846.081         8.351         0.632         4.083
  YS02001887YS02001890       468.274       880.776         8.646         0.653         4.223
  YS02001652YS02001649       201.728       375.174         4.058         0.292         1.904
  YS02001655YS02001652       202.354       376.192         4.075         0.293         1.911
  YS02001658YS02001655       201.876       375.432         3.988         0.282         1.855
  YS02001661YS02001658       205.638       382.157         4.064         0.287         1.890
  YS02001664YS02001661       219.705       404.982         4.387         0.309         2.037
  YSB1154YSB6556              26.086        51.273         0.486         0.038         0.240
  YSB1174YSB1171              18.023        35.565         0.362         0.029         0.181
  YSB1171HS02004479           46.089        90.052         1.040         0.092         0.540
  HS02004881HS02006253        51.534       102.668         1.108         0.080         0.543
  YS02001793JiankangQianchi      1041.236      1928.678        22.444         1.716        11.271
  YS02001757CaochengTiaoxuchi       535.375       970.294        11.263         0.809         5.537
  WSF200WS02003060           814.284      1520.753        21.621         1.910        11.426
  1                         2335.754      4035.281       148.092        17.404        89.544
  CC-Pump-1                  182.866       334.564         3.806         0.276         1.871
  CC-Pump-2                   40.085        72.963         0.838         0.060         0.412
  JK-Pump-1                  316.386       587.061         6.896         0.534         3.478
  JK-Pump-2                  482.140       898.342         9.986         0.744         4.961
  XR-Pump-1                  391.870       648.009        32.448         3.973        20.036
  XR-Pump-2                  341.411       567.274        27.612         3.369        17.015
  XR-Pump-3                  329.554       548.306        26.479         3.227        16.307
  XR-Pump-4                  329.554       548.306        26.479         3.227        16.307
  

  Analysis begun on:  Thu Jul 15 23:00:23 2021
  Analysis ended on:  Thu Jul 15 23:00:26 2021
  Total elapsed time: 00:00:03