
  EPA STORM WATER MANAGEMENT MODEL - VERSION 5.1 (Build 5.3.0.dev0)
  --------------------------------------------------------------

  WARNING 04: minimum elevation drop used for Conduit WS02004404WS02004405
  WARNING 03: negative offset ignored for Link YS02001904YS02001907
  
  *********************************************************
  NOTE: The summary statistics displayed in this report are
  based on results found at every computational time step,  
  not just on results from each reporting time step.
  *********************************************************
  
  ****************
  Analysis Options
  ****************
  Flow Units ............... LPS
  Process Models:
    Rainfall/Runoff ........ YES
    RDII ................... NO
    Snowmelt ............... NO
    Groundwater ............ NO
    Flow Routing ........... YES
    Ponding Allowed ........ NO
    Water Quality .......... YES
  Infiltration Method ...... HORTON
  Flow Routing Method ...... DYNWAVE
  Surcharge Method ......... EXTRAN
  Starting Date ............ 08/28/2015 08:00:00
  Ending Date .............. 08/28/2015 15:50:00
  Antecedent Dry Days ...... 8.0
  Report Time Step ......... 00:01:00
  Wet Time Step ............ 00:01:00
  Dry Time Step ............ 00:01:00
  Routing Time Step ........ 5.00 sec
  Variable Time Step ....... YES
  Maximum Trials ........... 8
  Number of Threads ........ 4
  Head Tolerance ........... 0.001500 m
  
  
  **************************        Volume         Depth
  Runoff Quantity Continuity     hectare-m            mm
  **************************     ---------       -------
  Total Precipitation ......        10.887        23.836
  Evaporation Loss .........         0.000         0.000
  Infiltration Loss ........         1.411         3.089
  Surface Runoff ...........         8.292        18.155
  Final Storage ............         1.186         2.596
  Continuity Error (%) .....        -0.016
  
  
  **************************           COD            SS            TN            TP         NH4-N
  Runoff Quality Continuity             kg            kg            kg            kg            kg
  **************************    ----------    ----------    ----------    ----------    ----------
  Initial Buildup ..........     41378.656     70582.865      1804.177       168.684      1032.807
  Surface Buildup ..........        41.425        91.431         2.568         0.227         1.442
  Wet Deposition ...........         0.000         0.000         0.000         0.000         0.000
  Sweeping Removal .........         0.000         0.000         0.000         0.000         0.000
  Infiltration Loss ........       164.554       320.127         3.263         0.236         1.574
  BMP Removal ..............         0.000         0.000         0.000         0.000         0.000
  Surface Runoff ...........      9366.500     18283.806       183.722        12.955        88.133
  Remaining Buildup ........     31885.964     52064.522      1619.692       155.715       944.511
  Continuity Error (%) .....         0.007         0.008         0.004         0.003         0.003
  
  
  **************************        Volume        Volume
  Flow Routing Continuity        hectare-m      10^6 ltr
  **************************     ---------     ---------
  Dry Weather Inflow .......         0.616         6.165
  Wet Weather Inflow .......         8.290        82.902
  Groundwater Inflow .......         0.000         0.000
  RDII Inflow ..............         0.000         0.000
  External Inflow ..........         0.102         1.024
  External Outflow .........         2.182        21.818
  Flooding Loss ............         6.327        63.266
  Evaporation Loss .........         0.000         0.000
  Exfiltration Loss ........         0.000         0.000
  Initial Stored Volume ....         0.076         0.761
  Final Stored Volume ......         0.665         6.649
  Continuity Error (%) .....        -0.972
  
  
  **************************           COD            SS            TN            TP         NH4-N
  Quality Routing Continuity            kg            kg            kg            kg            kg
  **************************    ----------    ----------    ----------    ----------    ----------
  Dry Weather Inflow .......      1541.201      2465.922       147.955        18.494        92.472
  Wet Weather Inflow .......      9365.352     18281.819       183.696        12.953        88.120
  Groundwater Inflow .......         0.000         0.000         0.000         0.000         0.000
  RDII Inflow ..............         0.000         0.000         0.000         0.000         0.000
  External Inflow ..........       183.418       293.469        17.608         2.201        11.005
  External Outflow .........      2751.792      5048.649       132.112        14.623        77.369
  Flooding Loss ............      7592.152     14658.829       188.572        16.132        98.075
  Exfiltration Loss ........         0.000         0.000         0.000         0.000         0.000
  Mass Reacted .............         0.000         0.000         0.000         0.000         0.000
  Initial Stored Mass ......         0.000         0.000         0.000         0.000         0.000
  Final Stored Mass ........       648.330      1174.449        25.350         2.602        14.408
  Continuity Error (%) .....         0.881         0.757         0.924         0.866         0.911
  
  
  *************************
  Highest Continuity Errors
  *************************
  Node HS02004842 (7.73%)
  Node JK-storage (-6.00%)
  Node YS02001884 (5.53%)
  Node HS02004817 (1.58%)
  Node WS02006253 (1.43%)
  
  
  ***************************
  Time-Step Critical Elements
  ***************************
  Link WS02006252WS02006251 (57.55%)
  Link WS02006280WS02006229 (14.39%)
  Link WS02006238WS02006235 (8.34%)
  Link YS02001793JiankangQianchi (4.14%)
  Link YS02006556YS02006558 (2.74%)
  
  
  ********************************
  Highest Flow Instability Indexes
  ********************************
  Link WS02006113WS02006111 (37)
  Link YS02163601YS02164001 (34)
  Link YS02163301YS02001633 (33)
  Link YS02001629YS02163301 (33)
  Link YS02001619YS02001622 (31)
  
  
  *************************
  Routing Time Step Summary
  *************************
  Minimum Time Step           :     0.50 sec
  Average Time Step           :     1.31 sec
  Maximum Time Step           :     5.00 sec
  Percent in Steady State     :    -0.00
  Average Iterations per Step :     3.77
  Percent Not Converging      :    12.65
  
  
  ***************************
  Subcatchment Runoff Summary
  ***************************
  
  ------------------------------------------------------------------------------------------------------------------------------
                            Total      Total      Total      Total     Imperv       Perv      Total       Total     Peak  Runoff
                           Precip      Runon       Evap      Infil     Runoff     Runoff     Runoff      Runoff   Runoff   Coeff
  Subcatchment                 mm         mm         mm         mm         mm         mm         mm    10^6 ltr      LPS
  ------------------------------------------------------------------------------------------------------------------------------
  sub0                      23.84       0.00       0.00       0.77      22.12       0.90      23.02        0.02     5.06   0.966
  sub1                      23.84       0.00       0.00       1.33      21.12       1.29      22.41        0.15    33.98   0.940
  sub2                      23.84       0.00       0.00       5.60      14.93       3.22      18.15        0.17    32.49   0.761
  sub3                      23.84       0.00       0.00       5.94      14.89       2.88      17.77        0.40    70.76   0.745
  sub4                      23.84       0.00       0.00       1.46      20.95       1.16      22.11        0.46    81.55   0.928
  sub5                      23.84       0.00       0.00       0.82      22.07       0.85      22.92        0.26    59.56   0.962
  sub7                      23.84       0.00       0.00       1.03      21.63       1.11      22.74        0.08    19.22   0.954
  sub8                      23.84       0.00       0.00       1.05      21.62       1.10      22.72        0.15    35.26   0.953
  sub9                      23.84       0.00       0.00       1.05      21.62       1.10      22.71        0.11    26.33   0.953
  sub10                     23.84       0.00       0.00       0.94      21.84       0.97      22.81        0.25    58.74   0.957
  sub11                     23.84       0.00       0.00       0.92      21.86       0.99      22.85        0.27    65.28   0.959
  sub12                     23.84       0.00       0.00       1.50      20.69       1.60      22.29        0.19    51.10   0.935
  sub14                     23.84       0.00       0.00       1.05      21.61       1.09      22.71        0.22    51.81   0.953
  sub15                     23.84       0.00       0.00       4.05      16.62       3.10      19.72        0.34    74.01   0.827
  sub16                     23.84       0.00       0.00       4.23      15.93       3.63      19.56        0.20    48.29   0.821
  sub17                     23.84       0.00       0.00       4.13      16.17       3.50      19.67        0.17    39.49   0.825
  sub22                     23.84       0.00       0.00       6.08      13.55       4.17      17.72        1.12   235.47   0.743
  sub23                     23.84       0.00       0.00       5.01      14.97       3.81      18.78        0.90   197.86   0.788
  sub60                     23.84       0.00       0.00       2.13      18.82       0.73      19.55        5.93   667.30   0.820
  sub61                     23.84       0.00       0.00       3.01      18.52       1.04      19.56        6.03   717.95   0.821
  sub62                     23.84       0.00       0.00       1.25      20.31       0.65      20.96        6.44   751.14   0.880
  sub63                     23.84       0.00       0.00       5.57      16.04       1.34      17.38        5.26   638.31   0.729
  sub64                     23.84       0.00       0.00       2.78      18.11       0.79      18.90        5.75   644.78   0.793
  sub65                     23.84       0.00       0.00       2.36      18.46       0.74      19.20        5.90   658.64   0.806
  sub66                     23.84       0.00       0.00       5.92      15.37       0.99      16.36        5.02   574.80   0.686
  sub67                     23.84       0.00       0.00       1.18      20.92       0.73      21.65        6.68   814.16   0.908
  sub68                     23.84       0.00       0.00       2.35      19.35       0.99      20.34        6.25   750.28   0.853
  sub69                     23.84       0.00       0.00       2.36      19.61       1.21      20.83        4.87   655.18   0.874
  sub70                     23.84      21.26       0.00       9.95      28.09       5.22      33.30        7.62   861.91   0.738
  sub71                     23.84       0.00       0.00       1.29      20.01       0.62      20.63        4.87   557.88   0.866
  sub72                     23.84       0.00       0.00       1.26      17.48       0.41      17.89        3.64   352.81   0.750
  1                         23.84      32.43       0.00       1.37      34.56      12.51      47.07       11.06  1042.57   0.837
  2                         23.84       0.00       0.00       3.02       5.81       5.77      11.58        4.63   438.27   0.486
  
  
  ****************************
  Subcatchment Washoff Summary
  ****************************
  
  ------------------------------------------------------------------------------------------
                                 COD            SS            TN            TP         NH4-N
  Subcatchment                    kg            kg            kg            kg            kg
  ------------------------------------------------------------------------------------------
  sub0                         5.447        10.648         0.101         0.009         0.050
  sub1                        23.688        48.042         0.463         0.033         0.225
  sub2                        16.966        34.031         0.358         0.025         0.167
  sub3                        41.902        83.507         0.867         0.061         0.406
  sub4                        55.504       114.752         1.120         0.071         0.542
  sub5                        53.600       106.723         1.016         0.079         0.498
  sub7                        11.854        24.343         0.233         0.016         0.114
  sub8                        17.650        37.231         0.360         0.022         0.174
  sub9                        15.191        31.538         0.304         0.020         0.147
  sub10                       44.044        88.979         0.851         0.062         0.416
  sub11                       42.563        86.978         0.834         0.059         0.406
  sub12                       37.050        74.157         0.712         0.055         0.347
  sub14                       32.601        66.963         0.643         0.044         0.313
  sub15                       47.434        94.407         0.941         0.071         0.448
  sub16                       30.857        61.246         0.608         0.047         0.290
  sub17                       28.315        55.641         0.547         0.044         0.262
  sub22                      161.087       316.749         3.138         0.242         1.488
  sub23                       88.506       179.789         1.886         0.128         0.879
  sub60                      597.605      1177.766        11.858         0.760         5.721
  sub61                      735.660      1436.196        13.939         0.989         6.759
  sub62                      737.985      1463.009        14.530         0.959         7.028
  sub63                      558.710      1076.727        11.142         0.807         5.242
  sub64                      776.597      1477.973        14.527         1.087         6.999
  sub65                      790.465      1509.997        14.865         1.095         7.170
  sub66                      450.962       868.123         9.087         0.615         4.293
  sub67                     1073.899      2091.719        20.029         1.513         9.761
  sub68                      789.681      1552.112        15.327         1.072         7.390
  sub69                      691.072      1362.692        13.304         0.964         6.425
  sub70                     1288.654      2534.730        26.762         1.929        12.763
  sub71                      488.493       980.368         9.974         0.604         4.804
  sub72                      441.504       833.180         8.283         0.587         4.008
  1                         1052.298      2081.048        22.042         1.588        10.427
  2                          118.381       219.864         3.138         0.193         1.360
  ------------------------------------------------------------------------------------------
  System                   11346.226     22181.229       223.788        15.848       107.320
  
  
  ******************
  Node Depth Summary
  ******************
  
  ---------------------------------------------------------------------------------
                                 Average  Maximum  Maximum  Time of Max    Reported
                                   Depth    Depth      HGL   Occurrence   Max Depth
  Node                 Type       Meters   Meters   Meters  days hr:min      Meters
  ---------------------------------------------------------------------------------
  WS02001211           JUNCTION     0.78     0.85     5.69     0  01:46        0.85
  WS02001212           JUNCTION     0.49     0.59     5.65     0  01:46        0.59
  WS02001213           JUNCTION     0.73     0.86     5.63     0  01:46        0.86
  WS02003069           JUNCTION     0.53     0.73     5.32     0  01:46        0.73
  WS02003072           JUNCTION     0.59     0.77     5.14     0  01:46        0.77
  WS02003073           JUNCTION     0.36     0.49     4.55     0  01:47        0.49
  WS02003060           JUNCTION     0.47     0.65     5.58     0  01:45        0.65
  WS02003066           JUNCTION     0.25     0.39     5.95     0  01:40        0.39
  WS02003059           JUNCTION     0.78     0.92     5.61     0  01:45        0.92
  WS02003067           JUNCTION     0.60     0.83     6.15     0  01:34        0.83
  WS02004401           JUNCTION     0.75     1.45     7.45     0  01:32        1.29
  WS02004402           JUNCTION     0.78     1.40     7.36     0  01:32        1.27
  WS02004403           JUNCTION     0.79     1.35     7.28     0  01:32        1.24
  WS02004404           JUNCTION     0.86     1.38     7.23     0  01:32        1.28
  WS02004406           JUNCTION     0.85     1.25     7.08     0  01:32        1.19
  WS02004409           JUNCTION     0.55     1.05     6.82     0  01:35        1.04
  WS02004410           JUNCTION     0.57     1.01     6.73     0  01:34        1.01
  WS02004411           JUNCTION     0.58     0.98     6.66     0  01:35        0.97
  WS02004412           JUNCTION     0.59     0.94     6.58     0  01:35        0.93
  WS02004413           JUNCTION     0.74     1.05     6.52     0  01:35        1.04
  WS02004405           JUNCTION     0.85     1.35     7.20     0  01:32        1.25
  WS02006109           JUNCTION     0.88     1.91     8.53     0  01:33        1.87
  WS02006110           JUNCTION     0.84     1.77     8.36     0  01:32        1.63
  WS02006111           JUNCTION     0.31     1.27     7.97     0  01:32        1.00
  WS02006112           JUNCTION     0.95     1.89     7.77     0  01:32        1.65
  WS02006113           JUNCTION     0.41     1.41     8.30     0  01:32        1.07
  WS02006115           JUNCTION     0.66     1.52     7.66     0  01:32        1.29
  WS02006116           JUNCTION     0.74     1.52     7.56     0  01:32        1.33
  WS02006230           JUNCTION     0.91     2.13     8.88     0  01:33        2.11
  WS02006231           JUNCTION     0.65     1.74     8.87     0  01:33        1.73
  WS02006232           JUNCTION     0.79     1.81     8.85     0  01:34        1.78
  WS02006234           JUNCTION     0.72     1.68     8.83     0  01:33        1.66
  WS02006235           JUNCTION     0.76     1.67     8.84     0  01:34        1.64
  WS02006238           JUNCTION     0.78     1.69     8.83     0  01:34        1.66
  WS02006240           JUNCTION     0.68     1.50     8.79     0  01:34        1.48
  WS02006242           JUNCTION     0.72     1.50     8.77     0  01:34        1.48
  WS02006243           JUNCTION     0.60     1.32     8.74     0  01:34        1.31
  WS02006245           JUNCTION     0.57     1.25     8.73     0  01:34        1.23
  WS02006247           JUNCTION     0.58     1.21     8.71     0  01:33        1.20
  WS02006248           JUNCTION     0.52     1.10     8.69     0  01:32        1.10
  WS02006249           JUNCTION     0.54     1.09     8.69     0  01:32        1.09
  WS02006239           JUNCTION     0.74     1.60     8.81     0  01:34        1.58
  WS02006251           JUNCTION     0.52     1.48     9.15     0  01:32        1.17
  WS02006252           JUNCTION     0.32     0.97     9.21     0  04:09        0.72
  WS02006253           JUNCTION     0.55     1.97     9.62     0  01:32        1.20
  WS02006256           JUNCTION     1.80     2.35     9.28     0  00:48        2.35
  WS02004138           JUNCTION     0.19     0.20     7.45     0  00:00        0.19
  WS02004139           JUNCTION     0.72     0.80     5.71     0  01:46        0.80
  WS02004407           JUNCTION     0.25     0.42     6.74     0  01:35        0.42
  WS02006228           JUNCTION     0.91     2.11     8.76     0  01:33        2.08
  WS02006229           JUNCTION     0.90     2.20     8.90     0  01:33        2.17
  WS02006280           JUNCTION     0.09     0.50     8.78     0  01:33        0.49
  WS02006284           JUNCTION     0.40     0.72     9.12     0  01:33        0.72
  WS02006287           JUNCTION     0.13     0.46     9.42     0  01:34        0.46
  WSF200               JUNCTION     0.25     0.45     5.68     0  01:40        0.45
  HS02004901           JUNCTION     0.15     0.43    10.25     0  01:33        0.43
  HS02004881           JUNCTION     0.01     0.09     9.11     0  01:32        0.06
  HS02004876           JUNCTION     0.05     0.19     9.22     0  01:32        0.19
  HS02004870           JUNCTION     0.02     0.11     9.40     0  01:35        0.11
  HS02004862           JUNCTION     0.03     0.13     9.51     0  01:35        0.13
  HS02004856           JUNCTION     0.09     0.17     9.59     0  01:35        0.17
  HS02004852           JUNCTION     0.02     0.10     9.61     0  01:35        0.10
  HS02004848           JUNCTION     0.02     0.08     9.68     0  01:36        0.08
  HS02004842           JUNCTION     0.34     0.41     9.68     0  01:35        0.41
  HS02004837           JUNCTION     0.04     0.10     9.68     0  01:35        0.10
  HS02004830           JUNCTION     0.05     0.15     9.62     0  01:35        0.15
  HS02004824           JUNCTION     0.04     0.20     9.61     0  01:35        0.20
  HS02004817           JUNCTION     0.47     0.77     9.62     0  01:35        0.77
  HS02004807           JUNCTION     0.15     0.44     9.61     0  01:35        0.44
  HS02004802           JUNCTION     0.19     0.47     9.60     0  01:35        0.47
  HS02004799           JUNCTION     0.16     0.55     9.76     0  01:33        0.55
  HS02004792           JUNCTION     0.05     0.27     9.79     0  01:33        0.27
  HS02004788           JUNCTION     0.04     0.19    10.09     0  01:34        0.19
  HS02004785           JUNCTION     0.07     0.29    10.19     0  01:33        0.29
  HS02004777           JUNCTION     0.17     0.44    10.24     0  01:33        0.44
  HS02004770           JUNCTION     0.14     0.42    10.25     0  01:33        0.42
  HS02004480           JUNCTION     0.11     0.46     9.70     0  01:33        0.46
  HS02004479           JUNCTION     0.15     0.49     9.70     0  01:34        0.49
  HS02004478           JUNCTION     0.09     0.35     9.58     0  01:35        0.35
  YS02001745           JUNCTION     0.82     1.14     8.66     0  01:29        1.05
  YS02001748           JUNCTION     1.22     1.87     8.95     0  01:28        1.47
  YS02001751           JUNCTION     1.41     1.68     8.56     0  01:28        1.64
  YS02001754           JUNCTION     1.66     1.89     8.50     0  03:01        1.89
  YS02001762           JUNCTION     1.85     2.08     8.48     0  03:01        2.07
  YS02001765           JUNCTION     1.81     2.03     8.48     0  03:01        2.02
  YS02001767           JUNCTION     1.77     1.97     8.46     0  02:38        1.97
  YS02001770           JUNCTION     1.76     1.95     8.44     0  02:06        1.95
  YS02001774           JUNCTION     1.82     2.00     8.42     0  02:40        1.99
  YS02001779           JUNCTION     1.56     1.68     8.37     0  01:27        1.68
  YS02001882           JUNCTION     0.76     1.73     8.44     0  01:32        1.64
  YS02001884           JUNCTION     0.86     1.81     8.43     0  01:32        1.74
  YS02001759           JUNCTION     1.89     2.12     8.49     0  03:01        2.12
  YS02001887           JUNCTION     0.94     1.85     8.39     0  01:32        1.82
  YS02001890           JUNCTION     0.96     1.81     8.32     0  01:32        1.81
  YS02001898           JUNCTION     0.73     1.57     8.31     0  01:33        1.56
  YS02001901           JUNCTION     0.84     1.68     8.29     0  01:33        1.67
  YS02001904           JUNCTION     0.82     1.64     8.27     0  01:33        1.63
  YS02001907           JUNCTION     1.15     1.96     8.25     0  01:33        1.96
  YS02001910           JUNCTION     0.95     1.99     8.50     0  01:33        1.87
  YS02001915           JUNCTION     0.75     1.93     8.65     0  01:33        1.76
  YS02001918           JUNCTION     0.48     1.81     8.88     0  01:33        1.57
  YS02001619           JUNCTION     1.35     1.61     8.54     0  01:27        1.56
  YS02001629           JUNCTION     1.70     1.85     8.40     0  01:27        1.85
  YS02001641           JUNCTION     1.80     1.95     8.39     0  01:29        1.93
  YS02001644           JUNCTION     1.80     1.92     8.35     0  01:29        1.92
  YS02001652           JUNCTION     1.66     2.16     8.76     0  01:29        1.87
  YS02001655           JUNCTION     1.43     2.20     9.05     0  01:29        1.65
  YS02001920           JUNCTION     0.58     2.10     9.11     0  01:33        1.66
  YS02001923           JUNCTION     0.40     2.01     9.27     0  01:33        1.43
  YS02001926           JUNCTION     0.42     1.90     9.35     0  01:33        1.26
  YS02001929           JUNCTION     0.27     1.78     9.47     0  01:33        1.04
  YS02001658           JUNCTION     1.16     2.30     9.44     0  01:29        1.42
  YS02001661           JUNCTION     0.92     2.46     9.86     0  01:29        1.22
  YS02001664           JUNCTION     0.43     0.68     8.60     0  01:30        0.68
  YS02001622           JUNCTION     1.37     1.62     8.52     0  01:27        1.56
  YS02001633           JUNCTION     1.79     1.97     8.43     0  01:29        1.94
  YS02001649           JUNCTION     1.86     2.05     8.44     0  01:29        2.05
  YS02001757           JUNCTION     1.99     2.21     8.47     0  02:18        2.21
  YS02001895           JUNCTION     0.72     1.57     8.31     0  01:42        1.56
  YS02001625           JUNCTION     1.65     1.78     8.38     0  01:27        1.78
  YS02163301           JUNCTION     1.73     1.91     8.43     0  01:29        1.88
  YS02163601           JUNCTION     1.84     2.02     8.41     0  01:29        1.98
  YS02164001           JUNCTION     1.78     1.95     8.40     0  01:29        1.91
  YS02001647           JUNCTION     1.64     1.80     8.41     0  04:50        1.79
  YSB1154              JUNCTION     0.29     0.65     9.70     0  01:34        0.65
  YSB6556              JUNCTION     0.18     0.53     9.70     0  01:33        0.53
  YSB1174              JUNCTION     0.24     0.59     9.70     0  01:33        0.59
  YSB1171              JUNCTION     0.44     0.80     9.70     0  01:34        0.80
  YS02006553           JUNCTION     1.15     1.97     8.26     0  01:48        1.97
  YS02006561           JUNCTION     0.46     1.34     8.00     0  01:32        1.09
  YS02006556           JUNCTION     1.12     1.94     8.25     0  01:48        1.94
  YS02006558           JUNCTION     1.16     1.99     8.26     0  01:32        1.98
  YS02001783           JUNCTION     0.73     1.67     7.82     0  01:32        1.48
  YS02001784           JUNCTION     0.73     1.64     7.71     0  01:32        1.42
  YS02001786           JUNCTION     0.65     1.78     7.81     0  01:32        1.27
  YS02001788           JUNCTION     0.58     1.62     7.60     0  01:32        1.13
  YS02001790           JUNCTION     0.73     1.96     7.60     0  05:06        1.29
  YS02001791           JUNCTION     0.70     2.69     8.16     0  05:05        1.28
  YS02001793           JUNCTION     0.99     2.57     7.40     0  05:04        2.36
  WSC                  OUTFALL      0.36     0.49     1.16     0  01:47        0.49
  JK-storage           STORAGE      3.71     5.80     6.60     0  01:32        5.80
  CC-storage           STORAGE      1.24     1.48     8.48     0  02:19        1.48
  XR-storage           STORAGE      7.18     7.72     5.72     0  01:46        7.72
  
  
  *******************
  Node Inflow Summary
  *******************
  
  -------------------------------------------------------------------------------------------------
                                  Maximum  Maximum                  Lateral       Total        Flow
                                  Lateral    Total  Time of Max      Inflow      Inflow     Balance
                                   Inflow   Inflow   Occurrence      Volume      Volume       Error
  Node                 Type           LPS      LPS  days hr:min    10^6 ltr    10^6 ltr     Percent
  -------------------------------------------------------------------------------------------------
  WS02001211           JUNCTION      7.35   390.50     0  03:27       0.207        10.4       0.382
  WS02001212           JUNCTION      0.00   393.64     0  03:26           0        10.3       0.234
  WS02001213           JUNCTION      0.00   396.55     0  03:26           0        10.3       0.273
  WS02003069           JUNCTION      0.32  1370.91     0  01:45     0.00902        21.9       0.166
  WS02003072           JUNCTION      0.00  1370.82     0  01:46           0        21.9       0.192
  WS02003073           JUNCTION      1.82  1372.65     0  01:46      0.0514        21.9       0.212
  WS02003060           JUNCTION     16.53  1370.77     0  01:45       0.466        21.9       0.161
  WS02003066           JUNCTION      0.00  1000.16     0  01:35           0        11.2       0.049
  WS02003059           JUNCTION      0.00   400.59     0  03:25           0        10.3       0.394
  WS02003067           JUNCTION      0.00   996.03     0  01:35           0        11.2       0.096
  WS02004401           JUNCTION      0.00  1015.77     0  01:34           0        11.5       0.234
  WS02004402           JUNCTION      0.00  1016.19     0  01:34           0        11.5       0.214
  WS02004403           JUNCTION      0.00  1016.71     0  01:34           0        11.5       0.190
  WS02004404           JUNCTION      0.16  1017.83     0  01:34     0.00457        11.5       0.138
  WS02004406           JUNCTION      0.00  1018.56     0  01:34           0        11.4       0.334
  WS02004409           JUNCTION      0.00  1016.10     0  01:34           0        11.4       0.194
  WS02004410           JUNCTION      0.00  1007.68     0  01:34           0        11.3       0.211
  WS02004411           JUNCTION      0.00   994.24     0  01:36           0        11.3       0.210
  WS02004412           JUNCTION      0.00   994.58     0  01:36           0        11.3       0.218
  WS02004413           JUNCTION      0.00   995.52     0  01:35           0        11.3       0.311
  WS02004405           JUNCTION      0.04  1018.70     0  01:34     0.00107        11.4       0.203
  WS02006109           JUNCTION      1.23   977.63     0  01:34      0.0347        11.5       0.143
  WS02006110           JUNCTION      0.00   977.87     0  01:34           0        11.5       0.210
  WS02006111           JUNCTION      0.00   977.90     0  01:34           0        11.4       0.050
  WS02006112           JUNCTION     39.49  1016.43     0  01:34       0.169        11.6       0.291
  WS02006113           JUNCTION      0.00   978.13     0  01:34           0        11.5       0.126
  WS02006115           JUNCTION      0.00  1016.70     0  01:34           0        11.6       0.243
  WS02006116           JUNCTION      0.00  1016.12     0  01:34           0        11.5       0.206
  WS02006230           JUNCTION     10.28   534.00     0  07:43        0.29        7.07       0.225
  WS02006231           JUNCTION      0.00   523.92     0  07:43           0        6.78       0.219
  WS02006232           JUNCTION      0.00   523.91     0  07:43           0        6.77       0.282
  WS02006234           JUNCTION      0.00   524.42     0  07:43           0        6.76       0.151
  WS02006235           JUNCTION      0.00   525.08     0  07:43           0        6.93       0.184
  WS02006238           JUNCTION      0.00   333.46     0  05:13           0        3.48       0.124
  WS02006240           JUNCTION      0.00   343.93     0  05:12           0        3.43       0.483
  WS02006242           JUNCTION      0.00   353.00     0  05:12           0        3.42       0.582
  WS02006243           JUNCTION      0.00   361.28     0  05:11           0         3.4       0.358
  WS02006245           JUNCTION      0.00   366.60     0  05:11           0         3.4       0.467
  WS02006247           JUNCTION      0.00   371.12     0  05:11           0        3.41       0.366
  WS02006248           JUNCTION      0.00   376.18     0  05:11           0        3.46       0.239
  WS02006249           JUNCTION      0.00   499.57     0  02:50           0        4.02       0.457
  WS02006239           JUNCTION      0.00   336.62     0  05:13           0        3.45       0.240
  WS02006251           JUNCTION      0.08   498.39     0  02:50     0.00217        4.09       0.431
  WS02006252           JUNCTION      0.00   400.00     0  06:00           0        3.12       0.019
  WS02006253           JUNCTION      5.06   277.18     0  01:32      0.0186        0.98       1.452
  WS02006256           JUNCTION      0.00   983.00     0  01:40           0        13.9       0.004
  WS02004138           JUNCTION      0.00   380.00     0  00:00           0        10.2       0.065
  WS02004139           JUNCTION      0.32   394.45     0  00:00     0.00905        10.2       0.440
  WS02004407           JUNCTION      0.00  1018.94     0  01:34           0        11.4       0.091
  WS02006228           JUNCTION      0.00   976.76     0  01:34           0        11.5       0.113
  WS02006229           JUNCTION      0.00  1052.78     0  01:32           0        11.6       0.143
  WS02006280           JUNCTION      0.00   937.36     0  01:34           0        4.56       0.014
  WS02006284           JUNCTION      0.10   934.64     0  01:35      0.0027        4.56       0.017
  WS02006287           JUNCTION      0.00   934.61     0  01:35           0        4.56       0.019
  WSF200               JUNCTION      0.00  1001.33     0  01:35           0        11.2       0.048
  HS02004901           JUNCTION     48.29    48.29     0  01:31       0.205       0.205       0.867
  HS02004881           JUNCTION     19.22   195.80     0  01:33      0.0766       0.897       0.063
  HS02004876           JUNCTION     33.98   176.89     0  01:34       0.149       0.821       0.067
  HS02004870           JUNCTION     35.26   143.34     0  01:34       0.145       0.672       0.017
  HS02004862           JUNCTION     32.69   109.55     0  01:35       0.175       0.527       0.033
  HS02004856           JUNCTION     26.33    76.92     0  01:35       0.109       0.354       0.410
  HS02004852           JUNCTION      0.00    51.63     0  01:36           0       0.245       0.025
  HS02004848           JUNCTION     70.76    70.76     0  01:38         0.4         0.4       0.013
  HS02004842           JUNCTION      0.00    21.86     0  01:49           0       0.168       8.372
  HS02004837           JUNCTION     65.09    82.02     0  01:35       0.431       0.586       0.139
  HS02004830           JUNCTION      0.15    82.12     0  01:35     0.00423       0.576       0.215
  HS02004824           JUNCTION     81.60   164.06     0  01:39       0.463        1.04       0.053
  HS02004817           JUNCTION      0.60   166.61     0  01:39      0.0169        1.05       1.605
  HS02004807           JUNCTION     65.28   225.56     0  01:36       0.265         1.3       0.343
  HS02004802           JUNCTION      0.00   226.44     0  01:37           0         1.3       0.298
  HS02004799           JUNCTION     51.81   605.47     0  01:33       0.216        2.82       0.117
  HS02004792           JUNCTION    235.75   554.35     0  01:33        1.13        2.61       0.015
  HS02004788           JUNCTION     75.68   319.93     0  01:33       0.386        1.48       0.026
  HS02004785           JUNCTION      0.15   244.47     0  01:33     0.00423         1.1       0.047
  HS02004777           JUNCTION      0.03   244.66     0  01:32    0.000846         1.1       0.479
  HS02004770           JUNCTION    197.86   245.54     0  01:32       0.896         1.1       0.279
  HS02004480           JUNCTION      0.00   713.04     0  01:33           0        3.27       0.024
  HS02004479           JUNCTION      0.00   107.72     0  01:33           0       0.464       0.161
  HS02004478           JUNCTION      0.00   934.56     0  01:35           0        4.56       0.007
  YS02001745           JUNCTION    667.30   667.30     0  03:01        5.93        5.93       0.184
  YS02001748           JUNCTION      0.04   667.58     0  03:01     0.00127        5.92       0.380
  YS02001751           JUNCTION      0.01   667.62     0  03:01     0.00031         5.9       0.407
  YS02001754           JUNCTION      0.26   668.14     0  03:01     0.00733        5.89       0.414
  YS02001762           JUNCTION      0.00   370.36     0  01:32           0        3.45       0.615
  YS02001765           JUNCTION      0.00   370.45     0  01:32           0        3.45       0.711
  YS02001767           JUNCTION      0.54   370.55     0  01:32      0.0151        3.47       1.032
  YS02001770           JUNCTION    751.30  1100.23     0  03:01        6.45        8.64       0.361
  YS02001774           JUNCTION      0.00   852.11     0  03:02           0        6.88       0.362
  YS02001779           JUNCTION      0.01   851.79     0  03:02    0.000141        6.85       0.225
  YS02001882           JUNCTION      0.00    35.96     0  01:30           0      0.0709       3.660
  YS02001884           JUNCTION      0.00    62.38     0  01:29           0       0.118       5.852
  YS02001759           JUNCTION    717.99   899.63     0  01:41        6.03        7.26       0.314
  YS02001887           JUNCTION    814.61   816.10     0  01:58        6.69        6.73       0.134
  YS02001890           JUNCTION      0.00   815.55     0  01:56           0        6.68       0.146
  YS02001898           JUNCTION      0.00   597.45     0  01:32           0        5.41       0.058
  YS02001901           JUNCTION      0.00   602.06     0  01:32           0        5.41       0.136
  YS02001904           JUNCTION      0.00   603.05     0  01:32           0         5.4       0.123
  YS02001907           JUNCTION      0.00  1428.22     0  03:01           0          14       0.178
  YS02001910           JUNCTION      0.00   912.13     0  03:01           0         8.6       0.148
  YS02001915           JUNCTION    557.90   911.68     0  03:01        4.87        8.65       0.072
  YS02001918           JUNCTION      0.00   432.04     0  01:32           0        3.81       0.047
  YS02001619           JUNCTION    574.80   574.80     0  03:01        5.02        5.02       0.238
  YS02001629           JUNCTION      0.00   281.72     0  01:26           0        2.08       1.370
  YS02001641           JUNCTION      0.00   474.56     0  01:28           0        6.13       0.342
  YS02001644           JUNCTION    644.82  1924.61     0  03:01        5.75          20       0.132
  YS02001652           JUNCTION      0.00   640.45     0  03:01           0        5.22       0.438
  YS02001655           JUNCTION      0.15   639.65     0  03:01     0.00434        5.24       0.484
  YS02001920           JUNCTION      2.87   403.04     0  01:33      0.0809        3.79       0.085
  YS02001923           JUNCTION      0.04   401.51     0  01:33     0.00106        3.69       0.049
  YS02001926           JUNCTION      0.05   468.85     0  01:33     0.00147        3.66       0.074
  YS02001929           JUNCTION    352.81   352.81     0  03:01        3.64        3.65       0.006
  YS02001658           JUNCTION      0.00   639.73     0  03:01           0        5.26       0.462
  YS02001661           JUNCTION      0.00   785.71     0  01:41           0        5.59      -0.009
  YS02001664           JUNCTION    638.31   638.31     0  03:01        5.26         5.6       0.095
  YS02001622           JUNCTION      0.00   574.98     0  03:01           0        5.01       0.631
  YS02001633           JUNCTION    658.84   658.84     0  03:01        5.91        7.07       0.450
  YS02001649           JUNCTION      0.00  1438.61     0  03:01           0        11.7       0.316
  YS02001757           JUNCTION      0.00  2181.73     0  01:41           0        12.9       0.709
  YS02001895           JUNCTION      0.00   593.63     0  01:32           0        5.39       0.118
  YS02001625           JUNCTION      0.00   801.40     0  03:01           0        5.86       0.683
  YS02163301           JUNCTION      0.00   286.17     0  01:26           0        2.09       1.153
  YS02163601           JUNCTION      0.11   470.98     0  01:28      0.0031        6.14       0.490
  YS02164001           JUNCTION      0.00   471.70     0  01:28           0        6.12       0.324
  YS02001647           JUNCTION      0.00   846.70     0  02:38           0        9.02       0.313
  YSB1154              JUNCTION     59.56    59.56     0  01:33        0.26        0.26       0.556
  YSB6556              JUNCTION      0.00    59.44     0  01:33           0       0.261       0.488
  YSB1174              JUNCTION     51.10    51.10     0  01:30       0.195       0.195       0.659
  YSB1171              JUNCTION      0.00   108.28     0  01:32           0       0.462       1.395
  YS02006553           JUNCTION      0.00   731.92     0  04:02           0        7.58       0.216
  YS02006561           JUNCTION      0.00  1059.92     0  01:32           0        13.8       0.006
  YS02006556           JUNCTION      0.00   731.99     0  04:02           0        7.59       0.151
  YS02006558           JUNCTION    751.16  1059.42     0  01:32        6.28        13.8       0.036
  YS02001783           JUNCTION      0.00  1023.99     0  01:31           0        13.8       0.019
  YS02001784           JUNCTION      1.06  1025.05     0  01:31      0.0299        13.8       0.030
  YS02001786           JUNCTION      0.06  1024.95     0  01:31     0.00159        13.8       0.029
  YS02001788           JUNCTION      0.07  1009.13     0  01:31       0.002        13.8       0.015
  YS02001790           JUNCTION      0.15   984.10     0  01:49     0.00437        13.8       0.017
  YS02001791           JUNCTION      0.00   983.95     0  02:38           0        13.8       0.010
  YS02001793           JUNCTION      0.00   984.25     0  01:53           0        13.8       0.001
  WSC                  OUTFALL       0.00  1372.56     0  01:47           0        21.8       0.000
  JK-storage           STORAGE       0.00  1027.77     0  01:30           0          14      -5.660
  CC-storage           STORAGE       0.00  2181.88     0  01:41           0        7.12       0.892
  XR-storage           STORAGE    1680.85  1680.85     0  03:01        21.3        21.9      -0.000
  
  
  **********************
  Node Surcharge Summary
  **********************
  
  Surcharging occurs when water rises above the top of the highest conduit.
  ---------------------------------------------------------------------
                                               Max. Height   Min. Depth
                                   Hours       Above Crown    Below Rim
  Node                 Type      Surcharged         Meters       Meters
  ---------------------------------------------------------------------
  WS02004401           JUNCTION        1.80          0.450        1.210
  WS02004402           JUNCTION        1.81          0.400        1.340
  WS02004403           JUNCTION        1.82          0.354        1.676
  WS02004404           JUNCTION        1.89          0.384        2.396
  WS02004406           JUNCTION        1.86          0.248        2.202
  WS02004409           JUNCTION        0.13          0.046        2.314
  WS02004410           JUNCTION        0.01          0.006        2.534
  WS02004413           JUNCTION        0.86          0.049        2.151
  WS02004405           JUNCTION        1.88          0.349        2.451
  WS02006109           JUNCTION        3.77          1.088        0.732
  WS02006110           JUNCTION        2.60          0.865        0.985
  WS02006111           JUNCTION        0.65          0.455        1.415
  WS02006112           JUNCTION        2.80          0.888        0.792
  WS02006113           JUNCTION        0.71          0.609        1.321
  WS02006115           JUNCTION        1.46          0.510        1.740
  WS02006116           JUNCTION        1.53          0.460        1.830
  WS02006230           JUNCTION        2.43          1.053        0.517
  WS02006231           JUNCTION        2.73          1.034        0.496
  WS02006232           JUNCTION        3.68          1.111        0.369
  WS02006234           JUNCTION        3.22          0.956        0.284
  WS02006235           JUNCTION        3.45          0.963        0.327
  WS02006238           JUNCTION        3.50          0.967        0.463
  WS02006240           JUNCTION        3.04          0.789        0.601
  WS02006242           JUNCTION        3.11          0.770        0.050
  WS02006243           JUNCTION        2.82          0.613        0.157
  WS02006245           JUNCTION        2.61          0.536        0.314
  WS02006247           JUNCTION        2.57          0.502        0.258
  WS02006248           JUNCTION        2.28          0.380        0.000
  WS02006249           JUNCTION        2.32          0.390        0.000
  WS02006239           JUNCTION        3.20          0.861        0.429
  WS02006251           JUNCTION        1.37          0.449        0.731
  WS02006252           JUNCTION        2.61          0.568        0.532
  WS02006253           JUNCTION        1.65          0.934        1.546
  WS02006256           JUNCTION        7.01          2.050        0.000
  WS02006228           JUNCTION        3.74          1.277        0.923
  WS02006229           JUNCTION        0.01          0.023        1.047
  HS02004817           JUNCTION        0.46          0.067        1.673
  YS02001745           JUNCTION        1.02          0.138        1.212
  YS02001748           JUNCTION        6.35          0.793        0.397
  YS02001751           JUNCTION        6.36          0.681        0.519
  YS02001754           JUNCTION        6.38          0.843        0.307
  YS02001762           JUNCTION        6.40          1.079        0.071
  YS02001765           JUNCTION        6.40          1.027        0.073
  YS02001767           JUNCTION        6.39          0.974        0.056
  YS02001770           JUNCTION        6.39          0.920        0.000
  YS02001774           JUNCTION        6.40          0.999        0.051
  YS02001779           JUNCTION        6.37          0.680        0.000
  YS02001882           JUNCTION        2.55          0.728        0.102
  YS02001884           JUNCTION        2.56          0.750        0.120
  YS02001759           JUNCTION        6.41          1.125        0.085
  YS02001887           JUNCTION        2.62          0.799        0.151
  YS02001890           JUNCTION        2.64          0.760        0.000
  YS02001898           JUNCTION        2.52          0.542        0.198
  YS02001901           JUNCTION        2.59          0.684        0.186
  YS02001904           JUNCTION        2.58          0.645        0.205
  YS02001907           JUNCTION        3.15          0.950        0.000
  YS02001910           JUNCTION        2.68          0.994        0.106
  YS02001915           JUNCTION        2.54          0.927        0.073
  YS02001918           JUNCTION        2.40          0.810        0.000
  YS02001619           JUNCTION        6.37          0.610        0.000
  YS02001629           JUNCTION        6.37          0.470        0.000
  YS02001641           JUNCTION        6.40          0.953        0.147
  YS02001644           JUNCTION        6.40          0.920        0.000
  YS02001652           JUNCTION        6.38          1.130        0.000
  YS02001655           JUNCTION        6.37          1.200        0.000
  YS02001920           JUNCTION        2.42          1.101        0.039
  YS02001923           JUNCTION        0.01          0.799        0.021
  YS02001926           JUNCTION        0.01          0.900        0.000
  YS02001929           JUNCTION        0.01          0.780        0.000
  YS02001658           JUNCTION        6.35          1.300        0.000
  YS02001661           JUNCTION        1.46          1.390        0.000
  YS02001622           JUNCTION        6.37          0.620        0.000
  YS02001633           JUNCTION        6.40          0.955        0.105
  YS02001649           JUNCTION        6.40          1.050        0.000
  YS02001757           JUNCTION        6.42          1.210        0.000
  YS02001895           JUNCTION        2.53          0.567        0.183
  YS02001625           JUNCTION        6.38          0.780        0.000
  YS02163301           JUNCTION        6.39          0.911        0.119
  YS02163601           JUNCTION        6.40          1.016        0.064
  YS02164001           JUNCTION        6.40          0.947        0.153
  YS02001647           JUNCTION        6.38          0.799        0.101
  YS02006553           JUNCTION        3.20          0.974        0.216
  YS02006561           JUNCTION        2.43          0.536        0.614
  YS02006556           JUNCTION        2.84          0.901        0.449
  YS02006558           JUNCTION        2.82          0.891        0.509
  YS02001783           JUNCTION        2.63          0.874        0.726
  YS02001784           JUNCTION        2.60          0.841        0.649
  YS02001786           JUNCTION        2.52          0.980        0.450
  YS02001788           JUNCTION        2.47          0.819        0.661
  YS02001790           JUNCTION        3.62          1.157        0.000
  YS02001791           JUNCTION        3.71          1.890        0.030
  YS02001793           JUNCTION        3.95          1.573        1.027
  
  
  *********************
  Node Flooding Summary
  *********************
  
  Flooding refers to all water that overflows a node, whether it ponds or not.
  --------------------------------------------------------------------------
                                                             Total   Maximum
                                 Maximum   Time of Max       Flood    Ponded
                        Hours       Rate    Occurrence      Volume     Depth
  Node                 Flooded       LPS   days hr:min    10^6 ltr    Meters
  --------------------------------------------------------------------------
  WS02006248              0.43    152.64      0  01:39       0.140     0.000
  WS02006249              1.57    349.86      0  01:32       0.648     0.000
  WS02006256              4.51    835.05      0  01:40      10.236     0.000
  YS02001770              1.12    248.89      0  03:01       0.465     0.000
  YS02001779              4.39    851.49      0  03:02       6.829     0.000
  YS02001890              1.74    300.05      0  01:57       1.275     0.000
  YS02001907              2.27   1197.39      0  03:01       6.359     0.000
  YS02001918              0.01     87.29      0  01:33       0.000     0.000
  YS02001619              0.01     95.13      0  01:27       0.000     0.000
  YS02001629              0.01    226.11      0  01:27       0.002     0.000
  YS02001644              6.08   1924.40      0  03:01      19.119     0.000
  YS02001652              0.01     22.27      0  01:29       0.000     0.000
  YS02001655              0.01     13.23      0  01:29       0.000     0.000
  YS02001926              0.01     12.98      0  01:33       0.000     0.000
  YS02001929              0.01    263.37      0  01:33       0.001     0.000
  YS02001658              0.01      5.60      0  01:29       0.000     0.000
  YS02001661              0.01    185.62      0  01:29       0.000     0.000
  YS02001622              0.01    104.81      0  01:27       0.000     0.000
  YS02001649              1.47    591.81      0  03:01       1.753     0.000
  YS02001757              0.31    120.33      0  02:25       0.058     0.000
  YS02001625              3.00    801.03      0  03:01       4.636     0.000
  YS02001790              0.01    161.19      0  05:06       0.000     0.000
  JK-storage              1.04    693.11      0  01:32       0.949     0.000
  XR-storage              6.06   1300.56      0  03:01      10.798     0.000
  
  
  **********************
  Storage Volume Summary
  **********************
  
  --------------------------------------------------------------------------------------------------
                         Average     Avg  Evap Exfil       Maximum     Max    Time of Max    Maximum
                          Volume    Pcnt  Pcnt  Pcnt        Volume    Pcnt     Occurrence    Outflow
  Storage Unit           1000 m3    Full  Loss  Loss       1000 m3    Full    days hr:min        LPS
  --------------------------------------------------------------------------------------------------
  JK-storage               0.186      64     0     0         0.291     100       0  01:32     983.00
  CC-storage               3.442      22     0     0         4.133      26       0  02:19     400.00
  XR-storage               0.862      93     0     0         0.926     100       0  01:46     380.00
  
  
  ***********************
  Outfall Loading Summary
  ***********************
  
  ---------------------------------------------------------------------------------------------------------------------------------
                         Flow       Avg       Max       Total         Total         Total         Total         Total         Total
                         Freq      Flow      Flow      Volume           COD            SS            TN            TP         NH4-N
  Outfall Node           Pcnt       LPS       LPS    10^6 ltr            kg            kg            kg            kg            kg
  ---------------------------------------------------------------------------------------------------------------------------------
  WSC                  100.00    810.04   1372.56      21.818      2752.016      5049.021       132.130        14.625        77.381
  ---------------------------------------------------------------------------------------------------------------------------------
  System               100.00    810.04   1372.56      21.818      2752.016      5049.021       132.130        14.625        77.381
  
  
  ********************
  Link Flow Summary
  ********************
  
  -----------------------------------------------------------------------------
                                 Maximum  Time of Max   Maximum    Max/    Max/
                                  |Flow|   Occurrence   |Veloc|    Full    Full
  Link                 Type          LPS  days hr:min     m/sec    Flow   Depth
  -----------------------------------------------------------------------------
  WS02003066WSF200     CONDUIT   1001.33     0  01:35      3.31    0.17    0.33
  WS02006287WS02006284 CONDUIT    934.55     0  01:35      2.63    0.43    0.46
  WS02006284WS02006280 CONDUIT    937.36     0  01:34      2.86    0.39    0.44
  WS02006280WS02006229 CONDUIT    967.43     0  01:34      4.53    0.21    0.75
  WS02006229WS02006228 CONDUIT    976.76     0  01:34      1.94    3.24    1.00
  WS02006256WS02006235 CONDUIT    261.01     0  07:32      3.69    2.76    1.00
  WS02006253WS02006251 CONDUIT    276.34     0  01:32      0.82    0.83    1.00
  WS02006252WS02006251 CONDUIT    403.64     0  07:43      3.21    1.48    1.00
  WS02006251WS02006249 CONDUIT    499.57     0  02:50      1.30    1.44    1.00
  WS02006249WS02006248 CONDUIT    376.18     0  05:11      1.19    2.06    1.00
  WS02006248WS02006247 CONDUIT    371.12     0  05:11      1.17    0.81    1.00
  WS02006247WS02006245 CONDUIT    366.60     0  05:11      1.15    2.91    1.00
  WS02006245WS02006243 CONDUIT    361.28     0  05:11      1.20    1.07    1.00
  WS02006243WS02006242 CONDUIT    353.00     0  05:12      1.08    0.75    1.00
  WS02006242WS02006240 CONDUIT    343.93     0  05:12      1.02    1.37    1.00
  WS02006240WS02006239 CONDUIT    336.62     0  05:13      1.11    1.06    1.00
  WS02006239WS02006238 CONDUIT    333.46     0  05:13      1.00    1.07    1.00
  WS02006238WS02006235 CONDUIT    332.63     0  05:14      1.00    0.74    1.00
  WS02006235WS02006234 CONDUIT    524.42     0  07:43      1.36    5.53    1.00
  WS02006234WS02006232 CONDUIT    523.91     0  07:43      1.36    1.06    1.00
  WS02006232WS02006231 CONDUIT    523.92     0  07:43      1.36    1.10    1.00
  WS02006231WS02006230 CONDUIT    523.73     0  07:43      1.39    7.94    1.00
  WS02006230WS02006229 CONDUIT    537.38     0  07:43      1.40   11.96    1.00
  WS02006228WS02006109 CONDUIT    976.40     0  01:34      1.94    4.27    1.00
  WS02006116WS02004401 CONDUIT   1015.77     0  01:34      1.29    1.40    1.00
  WS02006115WS02006116 CONDUIT   1016.12     0  01:34      1.29    1.30    1.00
  WS02006113WS02006111 CONDUIT    977.90     0  01:34      2.65    1.17    1.00
  WS02006112WS02006115 CONDUIT   1016.70     0  01:34      1.29    0.60    1.00
  WS02006111WS02006112 CONDUIT    977.81     0  01:34      1.95    0.46    1.00
  WS02006110WS02006113 CONDUIT    978.13     0  01:34      1.95    0.89    1.00
  WS02006109WS02006110 CONDUIT    977.87     0  01:34      1.95    1.88    1.00
  WS02004411WS02004412 CONDUIT    994.58     0  01:36      1.29    1.41    0.96
  WS02004401WS02004402 CONDUIT   1016.19     0  01:34      1.29    1.22    1.00
  WS02004413WS02003067 CONDUIT    996.03     0  01:35      1.63    0.43    0.73
  WS02004412WS02004413 CONDUIT    995.52     0  01:35      1.28    0.67    0.97
  WS02004410WS02004411 CONDUIT    994.24     0  01:36      1.27    1.36    0.99
  WS02004409WS02004410 CONDUIT   1007.68     0  01:34      1.28    1.30    1.00
  WS02004407WS02004409 CONDUIT   1016.10     0  01:34      1.84    0.36    0.71
  WS02004406WS02004407 CONDUIT   1018.94     0  01:34      1.72    0.46    0.71
  WS02004405WS02004406 CONDUIT   1018.56     0  01:34      1.30    2.01    1.00
  WS02004404WS02004405 CONDUIT   1018.66     0  01:34      1.30    9.98    1.00
  WS02004403WS02004404 CONDUIT   1017.67     0  01:34      1.30    0.74    1.00
  WS02004402WS02004403 CONDUIT   1016.71     0  01:34      1.29    1.46    1.00
  WS02004139WS02001211 CONDUIT    383.15     0  03:27      0.90    0.48    0.65
  WS02004138WS02004139 CONDUIT    394.13     0  00:00      3.62    0.08    0.47
  WS02003067WS02003066 CONDUIT   1000.16     0  01:35      1.73    0.32    0.51
  WS02001213WS02003059 CONDUIT    400.59     0  03:25      0.89    0.66    0.88
  WS02001212WS02001213 CONDUIT    396.55     0  03:26      1.32    0.61    0.57
  WS02001211WS02001212 CONDUIT    393.64     0  03:26      0.78    0.30    0.72
  WS02003072WS02003073 CONDUIT   1370.83     0  01:46      1.98    2.96    0.59
  WS02003069WS02003072 CONDUIT   1370.82     0  01:46      1.84    0.66    0.63
  WS02003060WS02003069 CONDUIT   1370.59     0  01:45      2.04    0.54    0.57
  WS02003059WS02003060 CONDUIT    405.61     0  03:25      0.95    0.26    0.78
  HS02004901HS02004770 CONDUIT     47.75     0  01:32      0.11    0.18    0.61
  HS02004876HS02004881 CONDUIT    177.01     0  01:33      1.41    1.88    0.19
  HS02004870HS02004876 CONDUIT    143.30     0  01:35      0.95    0.10    0.22
  HS02004842HS02004848 CONDUIT     21.86     0  01:49      0.09    0.01    0.35
  HS02004837HS02004842 CONDUIT     22.38     0  01:49      0.42    0.01    0.37
  HS02004830HS02004837 CONDUIT     81.97     0  01:35      0.70    0.08    0.18
  HS02004824HS02004830 CONDUIT     82.87     0  01:37      0.63    0.11    0.25
  HS02004817HS02004824 CONDUIT    166.01     0  01:39      0.37    0.07    0.64
  HS02004770HS02004777 CONDUIT    244.63     0  01:32      0.57    0.45    0.62
  HS02004799HS02004480 CONDUIT    605.42     0  01:33      1.21    0.76    0.71
  HS02004792HS02004799 CONDUIT    554.25     0  01:33      1.36    0.34    0.58
  HS02004788HS02004792 CONDUIT    319.85     0  01:34      1.40    0.21    0.33
  HS02004785HS02004788 CONDUIT    244.45     0  01:33      1.02    1.84    0.34
  HS02004777HS02004785 CONDUIT    244.32     0  01:33      0.67    0.30    0.52
  HS02004480HS02004478 CONDUIT    712.97     0  01:33      1.74    3.00    0.59
  HS02004479HS02004480 CONDUIT    107.66     0  01:33      0.45    0.10    0.68
  HS02004862HS02004870 CONDUIT    109.57     0  01:36      0.90    0.12    0.17
  HS02004848HS02004852 CONDUIT     51.63     0  01:36      0.58    0.06    0.13
  HS02004856HS02004862 CONDUIT     76.86     0  01:35      0.67    0.08    0.16
  HS02004852HS02004856 CONDUIT     51.73     0  01:36      0.39    0.06    0.19
  HS02004802HS02004478 CONDUIT    227.64     0  01:38      0.57    0.20    0.58
  HS02004478WS02006287 CONDUIT    934.61     0  01:35      2.37    0.26    0.44
  HS02004817HS02004807 CONDUIT    166.70     0  01:39      0.30    0.10    0.81
  HS02004807HS02004802 CONDUIT    226.44     0  01:37      0.51    0.43    0.64
  YS02001759YS02001757 CONDUIT    898.86     0  01:42      1.14    0.64    1.00
  YS02001762YS02001759 CONDUIT    370.81     0  01:32      0.47    0.43    1.00
  YS02001765YS02001762 CONDUIT    370.36     0  01:32      0.47    0.35    1.00
  YS02001770YS02001767 CONDUIT    370.01     0  01:32      0.50    1.47    1.00
  YS02001774YS02001770 CONDUIT    852.11     0  03:02      1.08    0.54    1.00
  YS02001779YS02001774 CONDUIT    851.79     0  03:02      1.08    0.43    1.00
  YS02001649YS02001757 CONDUIT    887.82     0  01:40      1.13    0.54    1.00
  YS02001767YS02001765 CONDUIT    370.45     0  01:32      0.47    0.47    1.00
  YS02006561YS02001783 CONDUIT   1023.99     0  01:31      2.27    0.53    1.00
  YS02001783YS02001784 CONDUIT   1023.99     0  01:31      2.04    1.41    1.00
  YS02001784YS02001785 CONDUIT   1024.90     0  01:31      2.07    2.39    1.00
  YS02001788YS02001790 CONDUIT    983.95     0  01:49      2.44    0.73    1.00
  YS02001790YS02001791 CONDUIT    983.95     0  02:38      2.98    1.07    1.00
  YS02001791YS02001793 CONDUIT    984.25     0  01:53      5.83    0.42    1.00
  YS02001910YS02001907 CONDUIT    911.83     0  03:01      1.16    0.51    1.00
  YS02001786YS02001788 CONDUIT   1009.06     0  01:31      2.31    1.94    1.00
  YS02001915YS02001910 CONDUIT    912.13     0  03:01      1.16    0.45    1.00
  YS02001918YS02001915 CONDUIT    432.04     0  01:32      0.56    0.24    1.00
  YS02001923YS02001920 CONDUIT    401.47     0  01:33      0.91    0.18    1.00
  YS02001926YS02001923 CONDUIT    468.79     0  01:33      1.00    0.67    1.00
  YS02001929YS02001926 CONDUIT    352.42     0  03:01      1.07    0.17    1.00
  YS02001920YS02001918 CONDUIT    401.73     0  01:34      0.85    0.39    1.00
  YS02001629YS02163301 CONDUIT    281.72     0  01:26      0.36    0.35    1.00
  YS02001619YS02001622 CONDUIT    574.98     0  03:01      0.86    0.85    1.00
  YS02001622YS02001625 CONDUIT    574.82     0  03:01      0.73    0.31    1.00
  YS02001625YS02001629 CONDUIT    260.25     0  01:26      0.40    0.12    1.00
  YS02163301YS02001633 CONDUIT    286.17     0  01:26      0.37    0.27    1.00
  YS02163601YS02164001 CONDUIT    471.70     0  01:28      0.60    0.42    1.00
  YS02164001YS02001641 CONDUIT    474.56     0  01:28      0.60    0.65    1.00
  YS02001641YS02001644 CONDUIT    476.81     0  01:28      0.61    1.54    1.00
  YS02001647YS02001649 CONDUIT    846.70     0  02:38      1.08    0.45    1.00
  YS02006553YS02006556 CONDUIT    731.99     0  04:02      0.93    0.63    1.00
  YS02006556YS02006558 CONDUIT    732.09     0  04:02      0.93    0.58    1.00
  YSB6556YSB1171       CONDUIT     59.52     0  01:34      0.17    0.06    0.88
  YS02001907YS02006553 CONDUIT    731.92     0  04:02      0.81    0.86    1.00
  YS02006558YS02006561 CONDUIT   1059.92     0  01:32      3.77    2.34    1.00
  YS02001633YS02163601 CONDUIT    470.87     0  01:28      0.60    0.49    1.00
  YS02001644YS02001647 CONDUIT    846.70     0  02:38      1.08    0.50    1.00
  YS02001745YS02001748 CONDUIT    667.54     0  03:01      1.86    0.26    1.00
  YS02001748YS02001751 CONDUIT    667.61     0  03:01      1.39    0.34    1.00
  YS02001751YS02001754 CONDUIT    667.88     0  03:01      1.15    0.32    1.00
  YS02001754YS02001757 CONDUIT    668.24     0  03:01      0.85    0.27    1.00
  YS02001882YS02001884 CONDUIT     35.96     0  01:30      0.22    0.04    1.00
  YS02001884YS02001887 CONDUIT     62.38     0  01:29      0.16    0.08    1.00
  YS02001890YS02001895 CONDUIT    593.63     0  01:32      0.76    0.28    1.00
  YS02001895YS02001898 CONDUIT    597.45     0  01:32      0.76    1.04    1.00
  YS02001898YS02001901 CONDUIT    602.06     0  01:32      0.77    0.39    1.00
  YS02001901YS02001904 CONDUIT    603.05     0  01:32      0.77    0.94    1.00
  YS02001904YS02001907 CONDUIT    603.99     0  01:32      0.77    0.21    1.00
  YS02001887YS02001890 CONDUIT    815.55     0  01:56      1.04    1.40    1.00
  YS02001652YS02001649 CONDUIT    639.87     0  03:01      0.83    0.32    1.00
  YS02001655YS02001652 CONDUIT    640.45     0  03:01      1.25    0.31    1.00
  YS02001658YS02001655 CONDUIT    639.50     0  03:01      1.61    0.27    1.00
  YS02001661YS02001658 CONDUIT    639.73     0  03:01      1.99    0.25    1.00
  YS02001664YS02001661 CONDUIT    785.71     0  01:41      1.90    0.25    0.84
  YSB1154YSB6556       CONDUIT     59.44     0  01:33      0.17    0.11    0.84
  YSB1174YSB1171       CONDUIT     50.32     0  01:30      0.14    0.08    0.92
  YSB1171HS02004479    CONDUIT    107.72     0  01:33      0.54    0.07    0.78
  HS02004881HS02006253 CONDUIT    272.42     0  01:32      2.77    0.05    0.56
  YS02001793JiankangQianchi CONDUIT   1027.77     0  01:30     16.52    0.08    1.00
  YS02001757CaochengTiaoxuchi CONDUIT   2181.88     0  01:41      3.80    0.96    1.00
  WSF200WS02003060     CONDUIT   1004.95     0  01:36      2.53    0.22    0.45
  1                    CONDUIT   1372.56     0  01:47      3.61    0.48    0.49
  CC-Pump-1            PUMP       200.00     0  02:40              1.00
  CC-Pump-2            PUMP       200.00     0  06:00              1.00
  JK-Pump-1            PUMP       300.00     0  01:40              1.00
  JK-Pump-2            PUMP       683.00     0  01:40              1.00
  XR-Pump-1            PUMP        95.00     0  00:00              1.00
  XR-Pump-2            PUMP        95.00     0  00:00              1.00
  XR-Pump-3            PUMP        95.00     0  00:00              1.00
  XR-Pump-4            PUMP        95.00     0  00:00              1.00
  
  
  ***************************
  Flow Classification Summary
  ***************************
  
  -------------------------------------------------------------------------------------
                      Adjusted    ---------- Fraction of Time in Flow Class ---------- 
                       /Actual         Up    Down  Sub   Sup   Up    Down  Norm  Inlet 
  Conduit               Length    Dry  Dry   Dry   Crit  Crit  Crit  Crit  Ltd   Ctrl  
  -------------------------------------------------------------------------------------
  WS02003066WSF200        1.00   0.01  0.04  0.00  0.00  0.95  0.00  0.00  0.46  0.00
  WS02006287WS02006284    1.00   0.03  0.02  0.00  0.60  0.35  0.00  0.00  0.61  0.00
  WS02006284WS02006280    1.00   0.04  0.00  0.00  0.00  0.00  0.00  0.96  0.00  0.00
  WS02006280WS02006229    1.00   0.04  0.00  0.00  0.05  0.08  0.00  0.82  0.03  0.00
  WS02006229WS02006228    1.00   0.00  0.00  0.00  1.00  0.00  0.00  0.00  0.00  0.00
  WS02006256WS02006235    1.00   0.02  0.00  0.00  0.98  0.00  0.00  0.00  0.00  0.00
  WS02006253WS02006251    1.00   0.01  0.02  0.00  0.95  0.00  0.01  0.00  0.00  0.00
  WS02006252WS02006251    1.00   0.08  0.00  0.00  0.20  0.00  0.72  0.00  0.00  0.00
  WS02006251WS02006249    1.00   0.00  0.00  0.00  1.00  0.00  0.00  0.00  0.22  0.00
  WS02006249WS02006248    1.00   0.00  0.00  0.00  0.90  0.00  0.10  0.00  0.00  0.00
  WS02006248WS02006247    1.00   0.01  0.00  0.00  0.98  0.00  0.00  0.02  0.12  0.00
  WS02006247WS02006245    1.00   0.01  0.00  0.00  0.95  0.00  0.00  0.04  0.00  0.00
  WS02006245WS02006243    1.00   0.01  0.00  0.00  0.95  0.00  0.00  0.05  0.01  0.00
  WS02006243WS02006242    1.00   0.01  0.00  0.00  0.97  0.00  0.00  0.02  0.12  0.00
  WS02006242WS02006240    1.00   0.01  0.01  0.00  0.96  0.00  0.01  0.00  0.00  0.00
  WS02006240WS02006239    1.00   0.02  0.00  0.00  0.93  0.00  0.00  0.05  0.01  0.00
  WS02006239WS02006238    1.00   0.02  0.00  0.00  0.98  0.00  0.00  0.00  0.02  0.00
  WS02006238WS02006235    1.00   0.02  0.00  0.00  0.98  0.00  0.00  0.00  0.00  0.00
  WS02006235WS02006234    1.00   0.02  0.00  0.00  0.96  0.00  0.01  0.00  0.00  0.00
  WS02006234WS02006232    1.00   0.02  0.00  0.00  0.98  0.00  0.00  0.00  0.00  0.00
  WS02006232WS02006231    1.00   0.02  0.00  0.00  0.97  0.00  0.00  0.00  0.00  0.00
  WS02006231WS02006230    1.00   0.02  0.00  0.00  0.67  0.00  0.31  0.00  0.00  0.00
  WS02006230WS02006229    1.00   0.00  0.00  0.00  0.99  0.00  0.00  0.01  0.00  0.00
  WS02006228WS02006109    1.00   0.00  0.00  0.00  1.00  0.00  0.00  0.00  0.01  0.00
  WS02006116WS02004401    1.00   0.03  0.00  0.00  0.97  0.00  0.00  0.00  0.00  0.00
  WS02006115WS02006116    1.00   0.03  0.00  0.00  0.97  0.00  0.00  0.00  0.00  0.00
  WS02006113WS02006111    1.00   0.02  0.00  0.00  0.17  0.81  0.00  0.00  0.16  0.00
  WS02006112WS02006115    1.00   0.02  0.01  0.00  0.97  0.00  0.00  0.00  0.00  0.00
  WS02006111WS02006112    1.00   0.02  0.00  0.00  0.98  0.00  0.00  0.00  0.68  0.00
  WS02006110WS02006113    1.00   0.00  0.01  0.00  0.98  0.00  0.00  0.00  0.00  0.00
  WS02006109WS02006110    1.00   0.00  0.00  0.00  0.99  0.00  0.00  0.00  0.00  0.00
  WS02004411WS02004412    1.00   0.04  0.00  0.00  0.96  0.00  0.00  0.00  0.00  0.00
  WS02004401WS02004402    1.00   0.03  0.00  0.00  0.97  0.00  0.00  0.00  0.00  0.00
  WS02004413WS02003067    1.00   0.04  0.00  0.00  0.00  0.00  0.95  0.00  0.00  0.00
  WS02004412WS02004413    1.00   0.04  0.00  0.00  0.96  0.00  0.00  0.00  0.00  0.00
  WS02004410WS02004411    1.00   0.04  0.00  0.00  0.96  0.00  0.00  0.00  0.00  0.00
  WS02004409WS02004410    1.00   0.04  0.00  0.00  0.96  0.00  0.00  0.00  0.00  0.00
  WS02004407WS02004409    1.00   0.04  0.00  0.00  0.96  0.00  0.00  0.00  0.86  0.00
  WS02004406WS02004407    1.00   0.00  0.04  0.00  0.96  0.00  0.00  0.00  0.00  0.00
  WS02004405WS02004406    1.00   0.00  0.00  0.00  1.00  0.00  0.00  0.00  0.04  0.00
  WS02004404WS02004405    1.00   0.00  0.00  0.00  1.00  0.00  0.00  0.00  0.01  0.00
  WS02004403WS02004404    1.00   0.00  0.03  0.00  0.97  0.00  0.00  0.00  0.00  0.00
  WS02004402WS02004403    1.00   0.03  0.00  0.00  0.97  0.00  0.00  0.00  0.00  0.00
  WS02004139WS02001211    1.00   0.00  0.00  0.00  1.00  0.00  0.00  0.00  0.00  0.00
  WS02004138WS02004139    1.00   0.00  0.00  0.00  1.00  0.00  0.00  0.00  1.00  0.00
  WS02003067WS02003066    1.00   0.05  0.00  0.00  0.95  0.00  0.00  0.00  0.00  0.00
  WS02001213WS02003059    1.00   0.00  0.00  0.00  1.00  0.00  0.00  0.00  0.00  0.00
  WS02001212WS02001213    1.00   0.00  0.00  0.00  0.95  0.00  0.05  0.00  0.00  0.00
  WS02001211WS02001212    1.00   0.00  0.00  0.00  1.00  0.00  0.00  0.00  0.00  0.00
  WS02003072WS02003073    1.00   0.00  0.00  0.00  0.00  0.00  0.00  1.00  0.00  0.00
  WS02003069WS02003072    1.00   0.00  0.00  0.00  1.00  0.00  0.00  0.00  0.06  0.00
  WS02003060WS02003069    1.00   0.00  0.00  0.00  0.99  0.01  0.00  0.00  0.04  0.00
  WS02003059WS02003060    1.00   0.00  0.00  0.00  1.00  0.00  0.00  0.00  0.00  0.00
  HS02004901HS02004770    1.00   0.04  0.00  0.00  0.96  0.00  0.00  0.00  0.00  0.00
  HS02004876HS02004881    1.00   0.01  0.00  0.00  0.79  0.21  0.00  0.00  0.00  0.00
  HS02004870HS02004876    1.00   0.00  0.00  0.00  1.00  0.00  0.00  0.00  0.95  0.00
  HS02004842HS02004848    1.00   0.00  0.04  0.00  0.96  0.00  0.00  0.00  0.53  0.00
  HS02004837HS02004842    1.00   0.00  0.00  0.00  1.00  0.00  0.00  0.00  0.11  0.00
  HS02004830HS02004837    1.00   0.00  0.00  0.00  1.00  0.00  0.00  0.00  0.99  0.00
  HS02004824HS02004830    1.00   0.00  0.00  0.00  1.00  0.00  0.00  0.00  0.03  0.00
  HS02004817HS02004824    1.00   0.00  0.00  0.00  1.00  0.00  0.00  0.00  0.86  0.00
  HS02004770HS02004777    1.00   0.00  0.04  0.00  0.96  0.00  0.00  0.00  0.01  0.00
  HS02004799HS02004480    1.00   0.00  0.01  0.00  0.95  0.00  0.04  0.00  0.00  0.00
  HS02004792HS02004799    1.00   0.00  0.00  0.00  1.00  0.00  0.00  0.00  0.98  0.00
  HS02004788HS02004792    1.00   0.00  0.00  0.00  1.00  0.00  0.00  0.00  0.98  0.00
  HS02004785HS02004788    1.00   0.00  0.00  0.00  1.00  0.00  0.00  0.00  0.00  0.00
  HS02004777HS02004785    1.00   0.00  0.00  0.00  1.00  0.00  0.00  0.00  0.10  0.00
  HS02004480HS02004478    1.00   0.04  0.00  0.00  0.68  0.00  0.00  0.28  0.00  0.00
  HS02004479HS02004480    1.00   0.01  0.00  0.00  0.99  0.00  0.00  0.00  0.10  0.00
  HS02004862HS02004870    1.00   0.00  0.00  0.00  1.00  0.00  0.00  0.00  0.02  0.00
  HS02004848HS02004852    1.00   0.04  0.00  0.00  0.96  0.00  0.00  0.00  0.83  0.00
  HS02004856HS02004862    1.00   0.00  0.05  0.00  0.95  0.00  0.00  0.00  0.85  0.00
  HS02004852HS02004856    1.00   0.04  0.00  0.00  0.96  0.00  0.00  0.00  0.69  0.00
  HS02004802HS02004478    1.00   0.04  0.00  0.00  0.96  0.00  0.00  0.00  0.01  0.00
  HS02004478WS02006287    1.00   0.04  0.00  0.00  0.71  0.25  0.00  0.00  0.58  0.00
  HS02004817HS02004807    1.00   0.00  0.04  0.00  0.96  0.00  0.00  0.00  0.01  0.00
  HS02004807HS02004802    1.00   0.04  0.00  0.00  0.96  0.00  0.00  0.00  0.00  0.00
  YS02001759YS02001757    1.00   0.00  0.00  0.00  1.00  0.00  0.00  0.00  0.15  0.00
  YS02001762YS02001759    1.00   0.00  0.00  0.00  1.00  0.00  0.00  0.00  0.01  0.00
  YS02001765YS02001762    1.00   0.00  0.00  0.00  1.00  0.00  0.00  0.00  0.13  0.00
  YS02001770YS02001767    1.00   0.00  0.00  0.00  1.00  0.00  0.00  0.00  0.00  0.00
  YS02001774YS02001770    1.00   0.00  0.04  0.00  0.96  0.00  0.00  0.00  0.01  0.00
  YS02001779YS02001774    1.00   0.00  0.00  0.00  1.00  0.00  0.00  0.00  0.15  0.00
  YS02001649YS02001757    1.00   0.00  0.00  0.00  1.00  0.00  0.00  0.00  0.14  0.00
  YS02001767YS02001765    1.00   0.00  0.00  0.00  1.00  0.00  0.00  0.00  0.00  0.00
  YS02006561YS02001783    1.00   0.05  0.00  0.00  0.55  0.40  0.00  0.00  0.35  0.00
  YS02001783YS02001784    1.00   0.00  0.05  0.00  0.95  0.00  0.00  0.00  0.00  0.00
  YS02001784YS02001785    1.00   0.00  0.00  0.00  1.00  0.00  0.00  0.00  0.15  0.00
  YS02001788YS02001790    1.00   0.00  0.00  0.00  0.58  0.42  0.00  0.00  0.23  0.00
  YS02001790YS02001791    1.00   0.00  0.00  0.00  0.54  0.46  0.00  0.00  0.30  0.00
  YS02001791YS02001793    1.00   0.00  0.00  0.00  0.57  0.43  0.00  0.00  0.02  0.00
  YS02001910YS02001907    1.00   0.00  0.00  0.00  0.99  0.00  0.00  0.01  0.11  0.00
  YS02001786YS02001788    1.00   0.00  0.00  0.00  0.57  0.43  0.00  0.00  0.00  0.00
  YS02001915YS02001910    1.00   0.00  0.00  0.00  0.99  0.01  0.00  0.00  0.12  0.00
  YS02001918YS02001915    1.00   0.00  0.00  0.00  0.99  0.00  0.00  0.00  0.43  0.00
  YS02001923YS02001920    1.00   0.00  0.00  0.00  1.00  0.00  0.00  0.00  0.65  0.00
  YS02001926YS02001923    1.00   0.00  0.02  0.00  0.30  0.00  0.68  0.00  0.00  0.00
  YS02001929YS02001926    1.00   0.00  0.04  0.00  0.96  0.00  0.00  0.00  0.56  0.00
  YS02001920YS02001918    1.00   0.00  0.00  0.00  1.00  0.00  0.00  0.00  0.00  0.00
  YS02001629YS02163301    1.00   0.04  0.00  0.00  0.95  0.00  0.00  0.00  0.00  0.00
  YS02001619YS02001622    1.00   0.04  0.00  0.00  0.96  0.00  0.00  0.00  0.00  0.00
  YS02001622YS02001625    1.00   0.04  0.00  0.00  0.96  0.00  0.00  0.00  0.02  0.00
  YS02001625YS02001629    1.00   0.04  0.01  0.00  0.94  0.00  0.01  0.00  0.00  0.00
  YS02163301YS02001633    1.00   0.00  0.04  0.00  0.96  0.00  0.00  0.00  0.00  0.00
  YS02163601YS02164001    1.00   0.00  0.02  0.00  0.98  0.00  0.00  0.00  0.00  0.00
  YS02164001YS02001641    1.00   0.00  0.02  0.00  0.98  0.00  0.00  0.00  0.05  0.00
  YS02001641YS02001644    1.00   0.00  0.00  0.00  1.00  0.00  0.00  0.00  0.00  0.00
  YS02001647YS02001649    1.00   0.00  0.05  0.00  0.95  0.00  0.00  0.00  0.01  0.00
  YS02006553YS02006556    1.00   0.00  0.00  0.00  1.00  0.00  0.00  0.00  0.03  0.00
  YS02006556YS02006558    1.00   0.00  0.00  0.00  1.00  0.00  0.00  0.00  0.00  0.00
  YSB6556YSB1171          1.00   0.01  0.03  0.00  0.96  0.00  0.00  0.00  0.00  0.00
  YS02001907YS02006553    1.00   0.00  0.01  0.00  0.99  0.00  0.00  0.00  0.00  0.00
  YS02006558YS02006561    1.00   0.05  0.00  0.00  0.29  0.66  0.00  0.00  0.35  0.00
  YS02001633YS02163601    1.00   0.00  0.00  0.00  1.00  0.00  0.00  0.00  0.14  0.00
  YS02001644YS02001647    1.00   0.00  0.05  0.00  0.95  0.00  0.00  0.00  0.00  0.00
  YS02001745YS02001748    1.00   0.00  0.00  0.00  0.93  0.00  0.00  0.07  0.00  0.00
  YS02001748YS02001751    1.00   0.00  0.00  0.00  0.98  0.02  0.00  0.00  0.13  0.00
  YS02001751YS02001754    1.00   0.00  0.00  0.00  0.95  0.00  0.00  0.05  0.01  0.00
  YS02001754YS02001757    1.00   0.00  0.00  0.00  1.00  0.00  0.00  0.00  0.15  0.00
  YS02001882YS02001884    1.00   0.04  0.00  0.00  0.96  0.00  0.00  0.00  0.00  0.00
  YS02001884YS02001887    1.00   0.02  0.02  0.00  0.97  0.00  0.00  0.00  0.00  0.00
  YS02001890YS02001895    1.00   0.00  0.04  0.00  0.96  0.00  0.00  0.00  0.00  0.00
  YS02001895YS02001898    1.00   0.04  0.00  0.00  0.95  0.00  0.01  0.00  0.00  0.00
  YS02001898YS02001901    1.00   0.05  0.00  0.00  0.95  0.00  0.00  0.00  0.00  0.00
  YS02001901YS02001904    1.00   0.05  0.00  0.00  0.95  0.00  0.00  0.00  0.00  0.00
  YS02001904YS02001907    1.00   0.00  0.04  0.00  0.95  0.00  0.00  0.00  0.00  0.00
  YS02001887YS02001890    1.00   0.00  0.00  0.00  0.99  0.00  0.01  0.00  0.00  0.00
  YS02001652YS02001649    1.00   0.00  0.00  0.00  1.00  0.00  0.00  0.00  0.14  0.00
  YS02001655YS02001652    1.00   0.00  0.00  0.00  0.95  0.00  0.00  0.05  0.01  0.00
  YS02001658YS02001655    1.00   0.00  0.04  0.00  0.94  0.02  0.00  0.00  0.01  0.00
  YS02001661YS02001658    1.00   0.04  0.00  0.00  0.93  0.03  0.00  0.00  0.00  0.00
  YS02001664YS02001661    1.00   0.04  0.00  0.00  0.93  0.03  0.00  0.00  0.06  0.00
  YSB1154YSB6556          1.00   0.04  0.00  0.00  0.96  0.00  0.00  0.00  0.01  0.00
  YSB1174YSB1171          1.00   0.01  0.01  0.00  0.97  0.00  0.00  0.00  0.00  0.00
  YSB1171HS02004479       1.00   0.01  0.00  0.00  0.99  0.00  0.00  0.00  0.09  0.00
  HS02004881HS02006253    1.00   0.01  0.00  0.00  0.69  0.02  0.00  0.27  0.55  0.00
  YS02001793JiankangQianchi    1.00   0.00  0.00  0.00  0.77  0.23  0.00  0.00  0.32  0.00
  YS02001757CaochengTiaoxuchi    1.00   0.00  0.06  0.00  0.91  0.03  0.00  0.00  0.00  0.00
  WSF200WS02003060        1.00   0.00  0.01  0.00  0.97  0.02  0.00  0.00  0.42  0.00
  1                       1.00   0.00  0.00  0.00  0.00  1.00  0.00  0.00  0.53  0.00
  
  
  *************************
  Conduit Surcharge Summary
  *************************
  
  ----------------------------------------------------------------------------
                                                           Hours        Hours 
                         --------- Hours Full --------   Above Full   Capacity
  Conduit                Both Ends  Upstream  Dnstream   Normal Flow   Limited
  ----------------------------------------------------------------------------
  WS02006280WS02006229        0.01      0.01      0.01      0.01         0.01
  WS02006229WS02006228        3.74      3.81      3.74      4.92         3.74
[...]
  YS02001649YS02001757        6.40      6.40      6.42      0.01         0.01
  YS02001767YS02001765        6.39      6.39      6.40      0.01         0.01
  YS02006561YS02001783        2.43      2.43      2.63      0.01         0.01
  YS02001783YS02001784        2.60      2.63      2.60      2.88         2.60
  YS02001784YS02001785        2.52      2.60      2.52      3.60         2.52
  YS02001788YS02001790        2.47      2.47      3.62      0.01         0.01
  YS02001790YS02001791        3.62      3.62      3.71      2.57         2.55
  YS02001791YS02001793        3.71      3.71      4.04      0.01         0.01
  YS02001910YS02001907        2.68      2.68      3.15      0.01         0.01
  YS02001786YS02001788        2.47      2.52      2.47      3.25         2.47
  YS02001915YS02001910        2.54      2.54      2.68      0.01         0.01
  YS02001918YS02001915        2.40      2.40      2.54      0.01         0.01
  YS02001923YS02001920        2.25      2.25      2.42      0.01         0.01
  YS02001926YS02001923        0.01      0.01      0.01      0.01         0.01
  YS02001929YS02001926        0.01      0.01      0.01      0.01         0.01
  YS02001920YS02001918        2.40      2.40      2.42      0.01         0.01
  YS02001629YS02163301        6.38      6.38      6.39      0.01         0.01
  YS02001619YS02001622        6.37      6.37      6.37      0.01         0.04
  YS02001622YS02001625        6.37      6.37      6.38      0.01         0.01
  YS02001625YS02001629        6.37      6.37      6.38      0.01         0.01
  YS02163301YS02001633        6.39      6.39      6.40      0.01         0.01
  YS02163601YS02164001        6.40      6.40      6.40      0.01         0.01
  YS02164001YS02001641        6.40      6.40      6.40      0.01         0.02
  YS02001641YS02001644        6.40      6.40      6.40      3.17         3.29
  YS02001647YS02001649        6.38      6.38      6.40      0.01         0.01
  YS02006553YS02006556        2.84      2.84      3.19      0.01         0.01
  YS02006556YS02006558        2.94      2.94      3.24      0.01         0.01
  YSB6556YSB1171              0.01      0.01      0.58      0.01         0.01
  YS02001907YS02006553        3.64      3.64      3.82      0.01         0.01
  YS02006558YS02006561        2.49      2.82      2.49      3.49         2.49
  YS02001633YS02163601        6.40      6.40      6.40      0.01         0.01
  YS02001644YS02001647        6.38      6.38      6.40      0.01         0.01
  YS02001745YS02001748        1.02      1.02      6.35      0.01         0.01
  YS02001748YS02001751        6.35      6.35      6.36      0.01         0.01
  YS02001751YS02001754        6.36      6.36      6.38      0.01         0.01
  YS02001754YS02001757        6.38      6.38      6.42      0.01         0.01
  YS02001882YS02001884        2.55      2.55      2.56      0.01         0.01
  YS02001884YS02001887        2.60      2.60      2.62      0.01         0.01
  YS02001890YS02001895        2.53      2.53      2.69      0.01         0.01
  YS02001895YS02001898        2.52      2.52      2.53      0.01         0.01
  YS02001898YS02001901        2.53      2.53      2.59      0.01         0.01
  YS02001901YS02001904        2.58      2.58      2.59      0.01         0.01
  YS02001904YS02001907        2.58      2.58      3.21      0.01         0.01
  YS02001887YS02001890        2.64      2.64      2.66      1.66         0.01
  YS02001652YS02001649        6.38      6.38      6.40      0.01         0.01
  YS02001655YS02001652        6.37      6.37      6.38      0.01         0.01
  YS02001658YS02001655        6.35      6.35      6.37      0.01         0.01
  YS02001661YS02001658        1.44      1.44      6.35      0.01         0.01
  YS02001664YS02001661        0.01      0.01      2.77      0.01         0.01
  YSB1174YSB1171              0.01      0.01      0.32      0.01         0.01
  HS02004881HS02006253        0.01      0.01      1.65      0.01         0.01
  YS02001793JiankangQianchi        3.95      3.95      5.95      0.01         0.01
  YS02001757CaochengTiaoxuchi        5.98      5.98      6.42      0.01         0.01
  
  
  ***************
  Pumping Summary
  ***************
  
  ---------------------------------------------------------------------------------------------------------
                                                  Min       Avg       Max     Total     Power    % Time Off
                        Percent   Number of      Flow      Flow      Flow    Volume     Usage    Pump Curve
  Pump                 Utilized   Start-Ups       LPS       LPS       LPS  10^6 ltr     Kw-hr    Low   High
  ---------------------------------------------------------------------------------------------------------
  CC-Pump-1               51.06           5      0.00    141.41    200.00     1.980      1.92    0.0    0.0
  CC-Pump-2               36.16           7      0.00     98.84    200.00     1.140      1.34    0.0    0.0
  JK-Pump-1               65.95           4      0.00    262.53    300.00     4.787     59.04    0.0    0.0
  JK-Pump-2               57.44           3      0.00    539.29    683.00     9.068     95.75    0.0   98.0
  XR-Pump-1              100.00           1      0.00     93.08     95.00     2.622     20.03    0.0    0.0
  XR-Pump-2              100.00           1      0.00     92.33     95.00     2.565     18.76    0.0    0.0
  XR-Pump-3               97.88           2      0.00     92.31     95.00     2.508     17.47    0.0    0.0
  XR-Pump-4               97.88           2      0.00     92.31     95.00     2.508     17.47    0.0    0.0
  
  
  ***************************
  Link Pollutant Load Summary
  ***************************
  
  ------------------------------------------------------------------------------------------
                                 COD            SS            TN            TP         NH4-N
  Link                            kg            kg            kg            kg            kg
  ------------------------------------------------------------------------------------------
  WS02003066WSF200          1327.811      2600.539        30.998         2.546        15.797
  WS02006287WS02006284       662.649      1308.487        17.243         1.527         9.012
  WS02006284WS02006280       663.107      1309.203        17.290         1.533         9.042
  WS02006280WS02006229       663.181      1309.444        17.288         1.533         9.041
  WS02006229WS02006228      1323.650      2589.181        30.689         2.499        15.604
  WS02006256WS02006235       309.372       591.460         6.558         0.489         3.257
  WS02006253WS02006251       131.605       266.584         2.761         0.199         1.345
  WS02006252WS02006251       360.701       707.758         6.827         0.471         3.287
  WS02006251WS02006249       478.792       948.399         9.336         0.654         4.513
  WS02006249WS02006248       391.031       769.826         7.644         0.536         3.699
  WS02006248WS02006247       395.375       778.070         7.754         0.546         3.758
  WS02006247WS02006245       393.328       773.321         7.729         0.545         3.748
  WS02006245WS02006243       391.575       769.245         7.706         0.544         3.739
  WS02006243WS02006242       390.535       766.238         7.708         0.546         3.744
  WS02006242WS02006240       389.088       762.423         7.681         0.544         3.731
  WS02006240WS02006239       388.893       761.239         7.690         0.546         3.738
  WS02006239WS02006238       389.771       762.349         7.719         0.548         3.754
  WS02006238WS02006235       390.428       763.321         7.731         0.549         3.760
  WS02006235WS02006234       668.072      1294.681        13.586         0.982         6.660
  WS02006234WS02006232       670.033      1298.611        13.642         0.987         6.690
  WS02006232WS02006231       672.216      1303.093        13.701         0.993         6.721
  WS02006231WS02006230       675.205      1309.321        13.774         1.000         6.760
  WS02006230WS02006229       679.625      1318.479        13.871         1.008         6.809
  WS02006228WS02006109      1322.749      2587.473        30.668         2.497        15.593
  WS02006116WS02004401      1350.000      2639.813        31.721         2.614        16.194
  WS02006115WS02006116      1352.022      2643.391        31.778         2.619        16.225
  WS02006113WS02006111      1328.548      2596.466        31.385         2.590        16.047
  WS02006112WS02006115      1353.882      2646.701        31.844         2.625        16.261
  WS02006111WS02006112      1327.556      2594.438        31.361         2.587        16.035
  WS02006110WS02006113      1329.208      2597.494        31.414         2.593        16.064
  WS02006109WS02006110      1330.455      2599.530        31.478         2.600        16.102
  WS02004411WS02004412      1334.343      2612.540        31.223         2.569        15.923
  WS02004401WS02004402      1348.244      2636.779        31.658         2.608        16.159
  WS02004413WS02003067      1329.712      2604.106        31.055         2.552        15.828
  WS02004412WS02004413      1331.785      2607.858        31.136         2.560        15.875
  WS02004410WS02004411      1336.575      2616.586        31.300         2.576        15.966
  WS02004409WS02004410      1338.566      2620.136        31.373         2.583        16.007
  WS02004407WS02004409      1340.459      2623.462        31.441         2.590        16.045
  WS02004406WS02004407      1341.253      2624.795        31.467         2.592        16.059
  WS02004405WS02004406      1343.688      2628.915        31.585         2.605        16.129
  WS02004404WS02004405      1345.462      2631.971        31.624         2.608        16.147
  WS02004403WS02004404      1345.223      2631.652        31.550         2.597        16.099
  WS02004402WS02004403      1346.558      2633.909        31.601         2.603        16.128
  WS02004139WS02001211      1286.111      2232.066        86.666        10.250        52.488
  WS02004138WS02004139      1291.506      2241.357        87.022        10.292        52.702
  WS02003067WS02003066      1328.174      2601.206        31.010         2.548        15.804
  WS02001213WS02003059      1322.711      2289.389        90.493        10.734        54.895
  WS02001212WS02001213      1329.346      2300.608        90.975        10.791        55.188
  WS02001211WS02001212      1331.312      2303.835        91.140        10.812        55.291
  WS02003072WS02003073      2747.134      5042.003       131.389        14.527        76.904
  WS02003069WS02003072      2752.787      5051.717       131.790        14.575        77.149
  WS02003060WS02003069      2756.112      5057.811       131.921        14.589        77.224
  WS02003059WS02003060      1322.364      2289.353        90.387        10.720        54.828
  HS02004901HS02004770        31.242        62.188         0.612         0.047         0.291
  HS02004876HS02004881       101.413       206.327         2.154         0.154         1.046
  HS02004870HS02004876        77.887       158.593         1.699         0.122         0.826
  HS02004842HS02004848        14.996        29.644         0.314         0.022         0.147
  HS02004837HS02004842        19.708        37.151         0.788         0.082         0.444
  HS02004830HS02004837       101.804       187.052         5.288         0.600         3.141
  HS02004824HS02004830       102.659       188.501         5.363         0.610         3.188
  HS02004817HS02004824       158.466       303.818         6.498         0.682         3.738
  HS02004770HS02004777       119.651       241.823         2.495         0.175         1.169
  HS02004799HS02004480       374.827       742.455         8.578         0.702         4.269
  HS02004792HS02004799       343.088       676.951         8.002         0.666         3.998
  HS02004788HS02004792       180.017       356.944         4.687         0.402         2.399
  HS02004785HS02004788       121.029       244.024         2.637         0.193         1.258
  HS02004777HS02004785       120.347       242.943         2.574         0.185         1.219
  HS02004480HS02004478       464.819       922.691        10.233         0.827         5.069
  HS02004479HS02004480        93.768       186.470         1.954         0.161         0.984
  HS02004862HS02004870        60.203       121.269         1.340         0.100         0.653
  HS02004848HS02004852        26.761        53.672         0.548         0.038         0.256
  HS02004856HS02004862        41.867        85.058         0.850         0.058         0.403
  HS02004852HS02004856        26.785        53.715         0.548         0.038         0.257
  HS02004802HS02004478       198.966       387.634         7.079         0.709         3.985
  HS02004478WS02006287       662.733      1308.531        17.259         1.529         9.023
  HS02004817HS02004807       157.290       302.061         6.359         0.664         3.651
  HS02004807HS02004802       198.934       387.541         7.104         0.712         4.002
  YS02001759YS02001757       562.280      1090.004        10.924         0.775         5.326
  YS02001762YS02001759       376.280       722.591         7.571         0.540         3.711
  YS02001765YS02001762       377.811       727.016         7.614         0.544         3.735
  YS02001770YS02001767       385.448       745.790         7.661         0.540         3.742
  YS02001774YS02001770       848.549      1682.825        16.661         1.139         8.095
  YS02001779YS02001774       848.179      1682.251        16.726         1.149         8.140
  YS02001649YS02001757       763.645      1483.354        15.173         1.041         7.343
  YS02001767YS02001765       380.797       734.362         7.682         0.549         3.770
  YS02006561YS02001783      1599.699      3068.531        33.104         2.424        16.326
  YS02001783YS02001784      1599.608      3068.399        33.100         2.424        16.323
  YS02001784YS02001785      1607.049      3080.375        33.814         2.513        16.770
  YS02001788YS02001790      1607.743      3081.544        33.887         2.523        16.816
  YS02001790YS02001791      1608.827      3083.346        33.987         2.535        16.879
  YS02001791YS02001793      1608.645      3083.007        33.981         2.535        16.875
  YS02001910YS02001907       952.271      1850.167        20.358         1.454        10.125
  YS02001786YS02001788      1607.276      3080.772        33.842         2.517        16.788
  YS02001915YS02001910       951.738      1849.089        20.310         1.447        10.094
  YS02001918YS02001915       473.411       888.528        10.555         0.857         5.399
  YS02001923YS02001920       447.736       844.361         8.520         0.611         4.143
  YS02001926YS02001923       444.600       838.648         8.397         0.598         4.073
  YS02001929YS02001926       441.882       833.794         8.300         0.589         4.018
  YS02001920YS02001918       468.866       878.939        10.457         0.851         5.350
  YS02001629YS02163301       210.420       398.028         4.141         0.295         1.981
  YS02001619YS02001622       451.044       868.485         9.084         0.615         4.291
  YS02001622YS02001625       450.715       868.053         9.072         0.614         4.286
  YS02001625YS02001629       204.774       386.988         4.040         0.287         1.930
  YS02163301YS02001633       216.149       409.262         4.240         0.303         2.030
  YS02163601YS02164001       715.893      1349.466        13.899         1.022         6.716
  YS02164001YS02001641       716.582      1350.713        13.899         1.021         6.715
  YS02001641YS02001644       718.984      1355.053        13.934         1.023         6.731
  YS02001647YS02001649       906.884      1746.419        18.236         1.277         8.759
  YS02006553YS02006556       808.983      1514.683        17.500         1.315         8.755
  YS02006556YS02006558       809.551      1515.750        17.469         1.309         8.732
  YSB6556YSB1171              54.544       108.517         1.086         0.087         0.541
  YS02001907YS02006553       808.731      1514.205        17.544         1.321         8.785
  YS02006558YS02006561      1599.558      3068.239        33.102         2.424        16.325
  YS02001633YS02163601       716.437      1350.355        13.875         1.017         6.698
  YS02001644YS02001647       915.136      1762.309        18.362         1.286         8.817
  YS02001745YS02001748       597.874      1178.532        11.860         0.761         5.723
  YS02001748YS02001751       597.412      1177.782        11.871         0.763         5.732
  YS02001751YS02001754       596.730      1176.683        11.860         0.763         5.728
  YS02001754YS02001757       597.915      1178.576        12.029         0.786         5.837
  YS02001882YS02001884         9.154        16.763         0.168         0.013         0.082
  YS02001884YS02001887         9.350        17.201         0.172         0.013         0.084
  YS02001890YS02001895       826.846      1597.829        15.715         1.197         7.695
  YS02001895YS02001898       826.946      1598.048        15.715         1.197         7.695
  YS02001898YS02001901       825.931      1596.474        15.686         1.195         7.679
  YS02001901YS02001904       824.994      1595.147        15.676         1.195         7.676
  YS02001904YS02001907       827.763      1599.495        15.815         1.210         7.757
  YS02001887YS02001890      1075.673      2094.497        20.303         1.549         9.937
  YS02001652YS02001649       547.251      1059.282        10.914         0.797         5.154
  YS02001655YS02001652       547.807      1060.209        10.930         0.798         5.162
  YS02001658YS02001655       547.467      1059.686        10.848         0.787         5.108
  YS02001661YS02001658       547.997      1060.499        10.862         0.788         5.114
  YS02001664YS02001661       557.873      1075.738        11.115         0.805         5.230
  YSB1154YSB6556              54.072       107.780         1.038         0.081         0.511
  YSB1174YSB1171              37.703        75.533         0.747         0.059         0.369
  YSB1171HS02004479           93.610       186.161         1.960         0.162         0.989
  HS02004881HS02006253       113.896       232.272         2.392         0.170         1.161
  YS02001793JiankangQianchi      1608.053      3082.076        33.908         2.525        16.829
  YS02001757CaochengTiaoxuchi       788.719      1530.853        15.239         1.050         7.357
  WSF200WS02003060          1327.163      2599.357        30.985         2.546        15.791
  1                         2752.016      5049.021       132.130        14.625        77.381
  CC-Pump-1                  229.680       450.874         4.338         0.299         2.088
  CC-Pump-2                  130.626       256.110         2.473         0.171         1.191
  JK-Pump-1                  453.303       876.322         9.365         0.691         4.626
  JK-Pump-2                 1002.237      1944.426        20.525         1.509        10.118
  XR-Pump-1                  340.324       588.331        23.412         2.780        14.210
  XR-Pump-2                  326.681       566.501        22.103         2.616        13.392
  XR-Pump-3                  313.948       546.128        20.880         2.463        12.628
  XR-Pump-4                  313.948       546.128        20.880         2.463        12.628
  

  Analysis begun on:  Fri Jul 16 00:43:22 2021
  Analysis ended on:  Fri Jul 16 00:43:25 2021
  Total elapsed time: 00:00:03