
  EPA STORM WATER MANAGEMENT MODEL - VERSION 5.1 (Build 5.3.0.dev0)
  --------------------------------------------------------------

  WARNING 04: minimum elevation drop used for Conduit WS02004404WS02004405
  WARNING 03: negative offset ignored for Link YS02001904YS02001907
  
  *********************************************************
  NOTE: The summary statistics displayed in this report are
  based on results found at every computational time step,  
  not just on results from each reporting time step.
  *********************************************************
  
  ****************
  Analysis Options
  ****************
  Flow Units ............... LPS
  Process Models:
    Rainfall/Runoff ........ YES
    RDII ................... NO
    Snowmelt ............... NO
    Groundwater ............ NO
    Flow Routing ........... YES
    Ponding Allowed ........ NO
    Water Quality .......... YES
  Infiltration Method ...... HORTON
  Flow Routing Method ...... DYNWAVE
  Surcharge Method ......... EXTRAN
  Starting Date ............ 08/28/2015 08:00:00
  Ending Date .............. 08/28/2015 15:50:00
  Antecedent Dry Days ...... 8.0
  Report Time Step ......... 00:01:00
  Wet Time Step ............ 00:01:00
  Dry Time Step ............ 00:01:00
  Routing Time Step ........ 5.00 sec
  Variable Time Step ....... YES
  Maximum Trials ........... 8
  Number of Threads ........ 4
  Head Tolerance ........... 0.001500 m
  
  
  **************************        Volume         Depth
  Runoff Quantity Continuity     hectare-m            mm
  **************************     ---------       -------
  Total Precipitation ......        10.887        23.836
  Evaporation Loss .........         0.000         0.000
  Infiltration Loss ........         1.411         3.089
  Surface Runoff ...........         8.292        18.155
  Final Storage ............         1.186         2.596
  Continuity Error (%) .....        -0.016
  
  
  **************************           COD            SS            TN            TP         NH4-N
  Runoff Quality Continuity             kg            kg            kg            kg            kg
  **************************    ----------    ----------    ----------    ----------    ----------
  Initial Buildup ..........     41378.656     70582.865      1804.177       168.684      1032.807
  Surface Buildup ..........        41.425        91.431         2.568         0.227         1.442
  Wet Deposition ...........         0.000         0.000         0.000         0.000         0.000
  Sweeping Removal .........         0.000         0.000         0.000         0.000         0.000
  Infiltration Loss ........       164.554       320.127         3.263         0.236         1.574
  BMP Removal ..............         0.000         0.000         0.000         0.000         0.000
  Surface Runoff ...........      9366.500     18283.806       183.722        12.955        88.133
  Remaining Buildup ........     31885.964     52064.522      1619.692       155.715       944.511
  Continuity Error (%) .....         0.007         0.008         0.004         0.003         0.003
  
  
  **************************        Volume        Volume
  Flow Routing Continuity        hectare-m      10^6 ltr
  **************************     ---------     ---------
  Dry Weather Inflow .......         0.616         6.165
  Wet Weather Inflow .......         8.290        82.904
  Groundwater Inflow .......         0.000         0.000
  RDII Inflow ..............         0.000         0.000
  External Inflow ..........         0.102         1.024
  External Outflow .........         2.110        21.105
  Flooding Loss ............         6.427        64.270
  Evaporation Loss .........         0.000         0.000
  Exfiltration Loss ........         0.000         0.000
  Initial Stored Volume ....         0.076         0.761
  Final Stored Volume ......         0.667         6.665
  Continuity Error (%) .....        -1.307
  
  
  **************************           COD            SS            TN            TP         NH4-N
  Quality Routing Continuity            kg            kg            kg            kg            kg
  **************************    ----------    ----------    ----------    ----------    ----------
  Dry Weather Inflow .......      1541.201      2465.922       147.955        18.494        92.472
  Wet Weather Inflow .......      9365.648     18282.388       183.702        12.954        88.123
  Groundwater Inflow .......         0.000         0.000         0.000         0.000         0.000
  RDII Inflow ..............         0.000         0.000         0.000         0.000         0.000
  External Inflow ..........       183.418       293.469        17.608         2.201        11.005
  External Outflow .........      2633.022      4813.478       129.699        14.441        76.170
  Flooding Loss ............      7689.194     14840.277       191.036        16.329        99.351
  Exfiltration Loss ........         0.000         0.000         0.000         0.000         0.000
  Mass Reacted .............         0.000         0.000         0.000         0.000         0.000
  Initial Stored Mass ......         0.000         0.000         0.000         0.000         0.000
  Final Stored Mass ........       671.117      1231.639        25.192         2.572        14.255
  Continuity Error (%) .....         0.874         0.743         0.956         0.911         0.952
  
  
  *************************
  Highest Continuity Errors
  *************************
  Node YS02001884 (9.43%)
  Node JK-storage (-8.05%)
  Node HS02004842 (7.73%)
  Node HS02004817 (1.58%)
  Node YSB1171 (1.38%)
  
  
  ***************************
  Time-Step Critical Elements
  ***************************
  Link WS02006252WS02006251 (39.91%)
  Link WS02006280WS02006229 (19.32%)
  Link WS02006238WS02006235 (15.53%)
  Link YS02006556YS02006558 (5.27%)
  Link YS02001793JiankangQianchi (2.63%)
  
  
  ********************************
  Highest Flow Instability Indexes
  ********************************
  Link WS02006113WS02006111 (41)
  Link WS02006111WS02006112 (22)
  Link YS02163601YS02164001 (19)
  Link YS02163301YS02001633 (18)
  Link YS02001629YS02163301 (18)
  
  
  *************************
  Routing Time Step Summary
  *************************
  Minimum Time Step           :     0.50 sec
  Average Time Step           :     1.50 sec
  Maximum Time Step           :     5.00 sec
  Percent in Steady State     :    -0.00
  Average Iterations per Step :     3.16
  Percent Not Converging      :     8.07
  
  
  ***************************
  Subcatchment Runoff Summary
  ***************************
  
  ------------------------------------------------------------------------------------------------------------------------------
                            Total      Total      Total      Total     Imperv       Perv      Total       Total     Peak  Runoff
                           Precip      Runon       Evap      Infil     Runoff     Runoff     Runoff      Runoff   Runoff   Coeff
  Subcatchment                 mm         mm         mm         mm         mm         mm         mm    10^6 ltr      LPS
  ------------------------------------------------------------------------------------------------------------------------------
  sub0                      23.84       0.00       0.00       0.77      22.12       0.90      23.02        0.02     5.06   0.966
  sub1                      23.84       0.00       0.00       1.33      21.12       1.29      22.41        0.15    33.98   0.940
  sub2                      23.84       0.00       0.00       5.60      14.93       3.22      18.15        0.17    32.49   0.761
  sub3                      23.84       0.00       0.00       5.94      14.89       2.88      17.77        0.40    70.76   0.745
  sub4                      23.84       0.00       0.00       1.46      20.95       1.16      22.11        0.46    81.55   0.928
  sub5                      23.84       0.00       0.00       0.82      22.07       0.85      22.92        0.26    59.56   0.962
  sub7                      23.84       0.00       0.00       1.03      21.63       1.11      22.74        0.08    19.22   0.954
  sub8                      23.84       0.00       0.00       1.05      21.62       1.10      22.72        0.15    35.26   0.953
  sub9                      23.84       0.00       0.00       1.05      21.62       1.10      22.71        0.11    26.33   0.953
  sub10                     23.84       0.00       0.00       0.94      21.84       0.97      22.81        0.25    58.74   0.957
  sub11                     23.84       0.00       0.00       0.92      21.86       0.99      22.85        0.27    65.28   0.959
  sub12                     23.84       0.00       0.00       1.50      20.69       1.60      22.29        0.19    51.10   0.935
  sub14                     23.84       0.00       0.00       1.05      21.61       1.09      22.71        0.22    51.81   0.953
  sub15                     23.84       0.00       0.00       4.05      16.62       3.10      19.72        0.34    74.01   0.827
  sub16                     23.84       0.00       0.00       4.23      15.93       3.63      19.56        0.20    48.29   0.821
  sub17                     23.84       0.00       0.00       4.13      16.17       3.50      19.67        0.17    39.49   0.825
  sub22                     23.84       0.00       0.00       6.08      13.55       4.17      17.72        1.12   235.47   0.743
  sub23                     23.84       0.00       0.00       5.01      14.97       3.81      18.78        0.90   197.86   0.788
  sub60                     23.84       0.00       0.00       2.13      18.82       0.73      19.55        5.93   667.30   0.820
  sub61                     23.84       0.00       0.00       3.01      18.52       1.04      19.56        6.03   717.95   0.821
  sub62                     23.84       0.00       0.00       1.25      20.31       0.65      20.96        6.44   751.14   0.880
  sub63                     23.84       0.00       0.00       5.57      16.04       1.34      17.38        5.26   638.31   0.729
  sub64                     23.84       0.00       0.00       2.78      18.11       0.79      18.90        5.75   644.78   0.793
  sub65                     23.84       0.00       0.00       2.36      18.46       0.74      19.20        5.90   658.64   0.806
  sub66                     23.84       0.00       0.00       5.92      15.37       0.99      16.36        5.02   574.80   0.686
  sub67                     23.84       0.00       0.00       1.18      20.92       0.73      21.65        6.68   814.16   0.908
  sub68                     23.84       0.00       0.00       2.35      19.35       0.99      20.34        6.25   750.28   0.853
  sub69                     23.84       0.00       0.00       2.36      19.61       1.21      20.83        4.87   655.18   0.874
  sub70                     23.84      21.26       0.00       9.95      28.09       5.22      33.30        7.62   861.91   0.738
  sub71                     23.84       0.00       0.00       1.29      20.01       0.62      20.63        4.87   557.88   0.866
  sub72                     23.84       0.00       0.00       1.26      17.48       0.41      17.89        3.64   352.81   0.750
  1                         23.84      32.43       0.00       1.37      34.56      12.51      47.07       11.06  1042.57   0.837
  2                         23.84       0.00       0.00       3.02       5.81       5.77      11.58        4.63   438.27   0.486
  
  
  ****************************
  Subcatchment Washoff Summary
  ****************************
  
  ------------------------------------------------------------------------------------------
                                 COD            SS            TN            TP         NH4-N
  Subcatchment                    kg            kg            kg            kg            kg
  ------------------------------------------------------------------------------------------
  sub0                         5.447        10.648         0.101         0.009         0.050
  sub1                        23.688        48.042         0.463         0.033         0.225
  sub2                        16.966        34.031         0.358         0.025         0.167
  sub3                        41.902        83.507         0.867         0.061         0.406
  sub4                        55.504       114.752         1.120         0.071         0.542
  sub5                        53.600       106.723         1.016         0.079         0.498
  sub7                        11.854        24.343         0.233         0.016         0.114
  sub8                        17.650        37.231         0.360         0.022         0.174
  sub9                        15.191        31.538         0.304         0.020         0.147
  sub10                       44.044        88.979         0.851         0.062         0.416
  sub11                       42.563        86.978         0.834         0.059         0.406
  sub12                       37.050        74.157         0.712         0.055         0.347
  sub14                       32.601        66.963         0.643         0.044         0.313
  sub15                       47.434        94.407         0.941         0.071         0.448
  sub16                       30.857        61.246         0.608         0.047         0.290
  sub17                       28.315        55.641         0.547         0.044         0.262
  sub22                      161.087       316.749         3.138         0.242         1.488
  sub23                       88.506       179.789         1.886         0.128         0.879
  sub60                      597.605      1177.766        11.858         0.760         5.721
  sub61                      735.660      1436.196        13.939         0.989         6.759
  sub62                      737.985      1463.009        14.530         0.959         7.028
  sub63                      558.710      1076.727        11.142         0.807         5.242
  sub64                      776.597      1477.973        14.527         1.087         6.999
  sub65                      790.465      1509.997        14.865         1.095         7.170
  sub66                      450.962       868.123         9.087         0.615         4.293
  sub67                     1073.899      2091.719        20.029         1.513         9.761
  sub68                      789.681      1552.112        15.327         1.072         7.390
  sub69                      691.072      1362.692        13.304         0.964         6.425
  sub70                     1288.654      2534.730        26.762         1.929        12.763
  sub71                      488.493       980.368         9.974         0.604         4.804
  sub72                      441.504       833.180         8.283         0.587         4.008
  1                         1052.298      2081.048        22.042         1.588        10.427
  2                          118.381       219.864         3.138         0.193         1.360
  ------------------------------------------------------------------------------------------
  System                   11346.226     22181.229       223.788        15.848       107.320
  
  
  ******************
  Node Depth Summary
  ******************
  
  ---------------------------------------------------------------------------------
                                 Average  Maximum  Maximum  Time of Max    Reported
                                   Depth    Depth      HGL   Occurrence   Max Depth
  Node                 Type       Meters   Meters   Meters  days hr:min      Meters
  ---------------------------------------------------------------------------------
  WS02001211           JUNCTION     0.77     0.86     5.69     0  01:46        0.86
  WS02001212           JUNCTION     0.48     0.59     5.65     0  01:46        0.59
  WS02001213           JUNCTION     0.72     0.86     5.63     0  01:45        0.86
  WS02003069           JUNCTION     0.52     0.73     5.32     0  01:46        0.73
  WS02003072           JUNCTION     0.58     0.77     5.14     0  01:46        0.77
  WS02003073           JUNCTION     0.35     0.49     4.55     0  01:47        0.49
  WS02003060           JUNCTION     0.46     0.65     5.58     0  01:45        0.65
  WS02003066           JUNCTION     0.25     0.40     5.95     0  01:40        0.39
  WS02003059           JUNCTION     0.77     0.92     5.61     0  01:45        0.92
  WS02003067           JUNCTION     0.59     0.83     6.15     0  01:34        0.83
  WS02004401           JUNCTION     0.74     1.47     7.47     0  01:32        1.29
  WS02004402           JUNCTION     0.76     1.42     7.38     0  01:32        1.27
  WS02004403           JUNCTION     0.77     1.38     7.31     0  01:32        1.23
  WS02004404           JUNCTION     0.84     1.40     7.25     0  01:32        1.27
  WS02004406           JUNCTION     0.84     1.25     7.08     0  01:32        1.19
  WS02004409           JUNCTION     0.54     1.04     6.81     0  01:35        1.02
  WS02004410           JUNCTION     0.55     1.01     6.73     0  01:35        1.01
  WS02004411           JUNCTION     0.56     0.97     6.65     0  01:35        0.97
  WS02004412           JUNCTION     0.57     0.94     6.58     0  01:35        0.93
  WS02004413           JUNCTION     0.72     1.05     6.52     0  01:35        1.04
  WS02004405           JUNCTION     0.84     1.37     7.22     0  01:32        1.24
  WS02006109           JUNCTION     0.85     1.91     8.53     0  01:33        1.87
  WS02006110           JUNCTION     0.82     1.80     8.39     0  01:32        1.62
  WS02006111           JUNCTION     0.30     1.29     8.00     0  01:32        1.00
  WS02006112           JUNCTION     0.92     1.91     7.79     0  01:32        1.64
  WS02006113           JUNCTION     0.39     1.45     8.34     0  01:32        1.07
  WS02006115           JUNCTION     0.64     1.54     7.68     0  01:32        1.29
  WS02006116           JUNCTION     0.72     1.54     7.58     0  01:32        1.32
  WS02006230           JUNCTION     0.87     2.14     8.88     0  01:33        2.11
  WS02006231           JUNCTION     0.61     1.75     8.87     0  01:33        1.70
  WS02006232           JUNCTION     0.75     1.81     8.85     0  01:33        1.79
  WS02006234           JUNCTION     0.67     1.68     8.83     0  01:34        1.66
  WS02006235           JUNCTION     0.70     1.67     8.83     0  01:34        1.65
  WS02006238           JUNCTION     0.72     1.69     8.83     0  01:34        1.65
  WS02006240           JUNCTION     0.61     1.50     8.79     0  01:34        1.47
  WS02006242           JUNCTION     0.64     1.51     8.78     0  01:34        1.48
  WS02006243           JUNCTION     0.52     1.32     8.74     0  01:34        1.31
  WS02006245           JUNCTION     0.48     1.24     8.72     0  01:33        1.23
  WS02006247           JUNCTION     0.49     1.21     8.71     0  01:33        1.20
  WS02006248           JUNCTION     0.42     1.10     8.69     0  01:32        1.10
  WS02006249           JUNCTION     0.44     1.09     8.69     0  01:32        1.09
  WS02006239           JUNCTION     0.67     1.60     8.81     0  01:34        1.58
  WS02006251           JUNCTION     0.40     1.48     9.15     0  01:32        1.14
  WS02006252           JUNCTION     0.22     0.94     9.18     0  01:32        0.68
  WS02006253           JUNCTION     0.43     1.98     9.62     0  01:32        1.18
  WS02006256           JUNCTION     1.89     2.35     9.28     0  00:38        2.35
  WS02004138           JUNCTION     0.19     0.20     7.45     0  00:00        0.19
  WS02004139           JUNCTION     0.72     0.80     5.71     0  01:46        0.80
  WS02004407           JUNCTION     0.24     0.42     6.74     0  01:35        0.42
  WS02006228           JUNCTION     0.88     2.11     8.76     0  01:33        2.08
  WS02006229           JUNCTION     0.87     2.21     8.90     0  01:33        2.17
  WS02006280           JUNCTION     0.09     0.50     8.78     0  01:33        0.50
  WS02006284           JUNCTION     0.40     0.72     9.12     0  01:34        0.72
  WS02006287           JUNCTION     0.13     0.46     9.42     0  01:34        0.46
  WSF200               JUNCTION     0.24     0.45     5.68     0  01:40        0.45
  HS02004901           JUNCTION     0.15     0.43    10.25     0  01:33        0.43
  HS02004881           JUNCTION     0.01     0.09     9.11     0  01:32        0.06
  HS02004876           JUNCTION     0.05     0.19     9.22     0  01:32        0.19
  HS02004870           JUNCTION     0.02     0.11     9.40     0  01:35        0.11
  HS02004862           JUNCTION     0.03     0.13     9.51     0  01:35        0.13
  HS02004856           JUNCTION     0.09     0.17     9.59     0  01:35        0.17
  HS02004852           JUNCTION     0.02     0.10     9.61     0  01:35        0.10
  HS02004848           JUNCTION     0.02     0.08     9.68     0  01:36        0.08
  HS02004842           JUNCTION     0.34     0.41     9.68     0  01:35        0.41
  HS02004837           JUNCTION     0.04     0.10     9.68     0  01:35        0.10
  HS02004830           JUNCTION     0.05     0.15     9.62     0  01:35        0.15
  HS02004824           JUNCTION     0.04     0.20     9.61     0  01:35        0.20
  HS02004817           JUNCTION     0.47     0.77     9.61     0  01:35        0.76
  HS02004807           JUNCTION     0.15     0.44     9.61     0  01:35        0.44
  HS02004802           JUNCTION     0.19     0.47     9.60     0  01:35        0.47
  HS02004799           JUNCTION     0.16     0.55     9.76     0  01:33        0.55
  HS02004792           JUNCTION     0.06     0.27     9.79     0  01:33        0.27
  HS02004788           JUNCTION     0.04     0.19    10.09     0  01:34        0.19
  HS02004785           JUNCTION     0.07     0.29    10.19     0  01:33        0.29
  HS02004777           JUNCTION     0.17     0.44    10.24     0  01:33        0.44
  HS02004770           JUNCTION     0.15     0.42    10.25     0  01:33        0.42
  HS02004480           JUNCTION     0.12     0.46     9.70     0  01:33        0.46
  HS02004479           JUNCTION     0.15     0.49     9.70     0  01:34        0.49
  HS02004478           JUNCTION     0.09     0.35     9.58     0  01:35        0.35
  YS02001745           JUNCTION     0.81     1.25     8.76     0  01:29        1.05
  YS02001748           JUNCTION     1.21     1.88     8.96     0  01:28        1.47
  YS02001751           JUNCTION     1.39     1.77     8.65     0  01:29        1.64
  YS02001754           JUNCTION     1.64     1.96     8.57     0  01:29        1.89
  YS02001762           JUNCTION     1.83     2.07     8.47     0  01:29        2.07
  YS02001765           JUNCTION     1.79     2.02     8.47     0  03:09        2.02
  YS02001767           JUNCTION     1.75     1.98     8.47     0  03:17        1.97
  YS02001770           JUNCTION     1.74     1.95     8.44     0  02:06        1.95
  YS02001774           JUNCTION     1.80     2.00     8.42     0  03:17        1.99
  YS02001779           JUNCTION     1.54     1.68     8.37     0  01:27        1.68
  YS02001882           JUNCTION     0.74     1.71     8.43     0  01:32        1.64
  YS02001884           JUNCTION     0.83     1.79     8.41     0  01:32        1.74
  YS02001759           JUNCTION     1.87     2.12     8.48     0  01:29        2.11
  YS02001887           JUNCTION     0.91     1.84     8.38     0  01:32        1.82
  YS02001890           JUNCTION     0.93     1.81     8.32     0  01:32        1.81
  YS02001898           JUNCTION     0.70     1.57     8.30     0  01:33        1.56
  YS02001901           JUNCTION     0.82     1.68     8.29     0  01:33        1.67
  YS02001904           JUNCTION     0.79     1.64     8.27     0  01:33        1.63
  YS02001907           JUNCTION     1.12     1.96     8.25     0  01:33        1.96
  YS02001910           JUNCTION     0.92     1.99     8.50     0  01:33        1.89
  YS02001915           JUNCTION     0.72     1.93     8.65     0  01:33        1.79
  YS02001918           JUNCTION     0.47     1.81     8.88     0  01:33        1.61
  YS02001619           JUNCTION     1.33     1.61     8.54     0  01:27        1.59
  YS02001629           JUNCTION     1.68     1.85     8.40     0  01:27        1.85
  YS02001641           JUNCTION     1.77     1.96     8.40     0  01:29        1.93
  YS02001644           JUNCTION     1.78     1.92     8.35     0  01:29        1.92
  YS02001652           JUNCTION     1.65     2.09     8.69     0  01:29        1.87
  YS02001655           JUNCTION     1.41     2.11     8.96     0  01:29        1.66
  YS02001920           JUNCTION     0.57     2.10     9.11     0  01:33        1.69
  YS02001923           JUNCTION     0.39     2.01     9.27     0  01:33        1.46
  YS02001926           JUNCTION     0.42     1.90     9.35     0  01:33        1.28
  YS02001929           JUNCTION     0.27     1.78     9.47     0  01:33        1.06
  YS02001658           JUNCTION     1.14     2.12     9.26     0  01:29        1.39
  YS02001661           JUNCTION     0.91     2.09     9.50     0  01:29        1.15
  YS02001664           JUNCTION     0.42     0.68     8.60     0  01:30        0.68
  YS02001622           JUNCTION     1.35     1.62     8.52     0  01:27        1.58
  YS02001633           JUNCTION     1.77     1.97     8.42     0  01:29        1.94
  YS02001649           JUNCTION     1.84     2.05     8.44     0  01:29        2.05
  YS02001757           JUNCTION     1.97     2.21     8.47     0  02:18        2.21
  YS02001895           JUNCTION     0.70     1.57     8.32     0  01:32        1.56
  YS02001625           JUNCTION     1.63     1.78     8.38     0  01:27        1.78
  YS02163301           JUNCTION     1.71     1.90     8.42     0  01:29        1.89
  YS02163601           JUNCTION     1.82     2.03     8.42     0  01:29        1.98
  YS02164001           JUNCTION     1.76     1.96     8.42     0  01:29        1.91
  YS02001647           JUNCTION     1.62     1.80     8.41     0  01:35        1.79
  YSB1154              JUNCTION     0.29     0.65     9.70     0  01:34        0.65
  YSB6556              JUNCTION     0.18     0.53     9.70     0  01:33        0.53
  YSB1174              JUNCTION     0.24     0.59     9.70     0  01:33        0.59
  YSB1171              JUNCTION     0.44     0.80     9.70     0  01:34        0.80
  YS02006553           JUNCTION     1.12     1.97     8.26     0  01:57        1.97
  YS02006561           JUNCTION     0.44     1.29     7.95     0  01:32        1.09
  YS02006556           JUNCTION     1.09     1.94     8.25     0  01:45        1.94
  YS02006558           JUNCTION     1.13     1.99     8.26     0  01:32        1.98
  YS02001783           JUNCTION     0.68     1.67     7.81     0  01:32        1.48
  YS02001784           JUNCTION     0.69     1.87     7.93     0  01:32        1.41
  YS02001786           JUNCTION     0.61     2.07     8.10     0  01:32        1.26
  YS02001788           JUNCTION     0.52     2.18     8.16     0  01:32        1.13
  YS02001790           JUNCTION     0.64     1.96     7.60     0  01:31        1.29
  YS02001791           JUNCTION     0.59     1.64     7.11     0  01:32        1.27
  YS02001793           JUNCTION     0.81     1.98     6.81     0  01:32        1.80
  WSC                  OUTFALL      0.35     0.49     1.16     0  01:47        0.49
  JK-storage           STORAGE      3.03     5.80     6.60     0  01:32        5.80
  CC-storage           STORAGE      1.22     1.48     8.48     0  02:19        1.48
  XR-storage           STORAGE      7.15     7.72     5.72     0  01:45        7.72
  
  
  *******************
  Node Inflow Summary
  *******************
  
  -------------------------------------------------------------------------------------------------
                                  Maximum  Maximum                  Lateral       Total        Flow
                                  Lateral    Total  Time of Max      Inflow      Inflow     Balance
                                   Inflow   Inflow   Occurrence      Volume      Volume       Error
  Node                 Type           LPS      LPS  days hr:min    10^6 ltr    10^6 ltr     Percent
  -------------------------------------------------------------------------------------------------
  WS02001211           JUNCTION      7.35   391.43     0  03:15       0.207        10.3       0.398
  WS02001212           JUNCTION      0.00   395.62     0  03:14           0        10.3       0.227
  WS02001213           JUNCTION      0.00   399.16     0  03:14           0        10.2       0.303
  WS02003069           JUNCTION      0.32  1371.42     0  01:45     0.00902        21.2       0.183
  WS02003072           JUNCTION      0.00  1371.34     0  01:46           0        21.2       0.215
  WS02003073           JUNCTION      1.82  1373.15     0  01:46      0.0514        21.2       0.253
  WS02003060           JUNCTION     16.53  1371.30     0  01:45       0.466        21.2       0.172
  WS02003066           JUNCTION      0.00   999.30     0  01:35           0        10.6       0.049
  WS02003059           JUNCTION      0.00   403.50     0  03:15           0        10.2       0.411
  WS02003067           JUNCTION      0.00   995.18     0  01:35           0        10.6       0.098
  WS02004401           JUNCTION      0.00  1015.51     0  01:34           0        10.9       0.211
  WS02004402           JUNCTION      0.00  1015.91     0  01:34           0        10.8       0.197
  WS02004403           JUNCTION      0.00  1016.64     0  01:34           0        10.8       0.179
  WS02004404           JUNCTION      0.16  1017.37     0  01:34     0.00457        10.8       0.134
  WS02004406           JUNCTION      0.00  1018.26     0  01:34           0        10.8       0.325
  WS02004409           JUNCTION      0.00  1015.82     0  01:34           0        10.7       0.181
  WS02004410           JUNCTION      0.00  1008.02     0  01:34           0        10.7       0.202
  WS02004411           JUNCTION      0.00   993.43     0  01:36           0        10.7       0.205
  WS02004412           JUNCTION      0.00   993.79     0  01:36           0        10.7       0.217
  WS02004413           JUNCTION      0.00   994.79     0  01:35           0        10.6       0.315
  WS02004405           JUNCTION      0.04  1017.70     0  01:34     0.00107        10.8       0.198
  WS02006109           JUNCTION      1.23   977.50     0  01:34      0.0347        10.8       0.162
  WS02006110           JUNCTION      0.00   977.37     0  01:34           0        10.8       0.193
  WS02006111           JUNCTION      0.00   977.56     0  01:34           0        10.8       0.033
  WS02006112           JUNCTION     39.49  1015.97     0  01:34       0.169        10.9       0.286
  WS02006113           JUNCTION      0.00   977.41     0  01:34           0        10.8       0.098
  WS02006115           JUNCTION      0.00  1016.03     0  01:34           0        10.9       0.207
  WS02006116           JUNCTION      0.00  1015.37     0  01:34           0        10.9       0.176
  WS02006230           JUNCTION     10.28   533.37     0  07:01        0.29        6.38       0.155
  WS02006231           JUNCTION      0.00   523.20     0  07:01           0        6.09       0.189
  WS02006232           JUNCTION      0.00   523.22     0  07:01           0        6.08       0.268
  WS02006234           JUNCTION      0.00   523.84     0  07:01           0        6.06       0.120
  WS02006235           JUNCTION      0.00   524.65     0  07:01           0        6.24       0.168
  WS02006238           JUNCTION      0.00   328.67     0  07:01           0        2.28       0.307
  WS02006240           JUNCTION      0.00   327.88     0  07:01           0        2.22       0.484
  WS02006242           JUNCTION      0.00   327.81     0  07:28           0        2.19       0.579
  WS02006243           JUNCTION      0.00   327.98     0  07:22           0        2.17       0.177
  WS02006245           JUNCTION      0.00   328.09     0  07:28           0        2.16       0.377
  WS02006247           JUNCTION      0.00   328.91     0  07:01           0        2.15       0.152
  WS02006248           JUNCTION      0.00   328.72     0  07:01           0        2.19      -0.030
  WS02006249           JUNCTION      0.00   407.27     0  07:00           0        2.38       0.176
  WS02006239           JUNCTION      0.00   328.49     0  07:01           0        2.25       0.332
  WS02006251           JUNCTION      0.08   403.04     0  07:20     0.00217         2.4      -0.024
  WS02006252           JUNCTION      0.00   400.00     0  07:20           0        1.44       0.005
  WS02006253           JUNCTION      5.06   274.34     0  01:32      0.0186       0.948      -0.059
  WS02006256           JUNCTION      0.00   983.00     0  01:40           0        14.3       0.011
  WS02004138           JUNCTION      0.00   380.00     0  00:00           0        10.1       0.066
  WS02004139           JUNCTION      0.32   394.45     0  00:00     0.00905        10.1       0.454
  WS02004407           JUNCTION      0.00  1018.43     0  01:34           0        10.7       0.078
  WS02006228           JUNCTION      0.00   976.32     0  01:34           0        10.8       0.131
  WS02006229           JUNCTION      0.00  1053.38     0  01:32           0        10.9       0.136
  WS02006280           JUNCTION      0.00   936.85     0  01:34           0        4.56       0.014
  WS02006284           JUNCTION      0.10   934.66     0  01:35      0.0027        4.56       0.018
  WS02006287           JUNCTION      0.00   934.63     0  01:35           0        4.56       0.019
  WSF200               JUNCTION      0.00  1000.42     0  01:35           0        10.6       0.046
  HS02004901           JUNCTION     48.29    48.29     0  01:31       0.205       0.205       0.867
  HS02004881           JUNCTION     19.22   195.87     0  01:33      0.0766       0.897       0.053
  HS02004876           JUNCTION     33.98   176.89     0  01:34       0.149       0.821       0.067
  HS02004870           JUNCTION     35.26   143.33     0  01:34       0.145       0.672       0.017
  HS02004862           JUNCTION     32.69   109.55     0  01:35       0.175       0.527       0.033
  HS02004856           JUNCTION     26.33    76.92     0  01:35       0.109       0.354       0.409
  HS02004852           JUNCTION      0.00    51.63     0  01:36           0       0.245       0.025
  HS02004848           JUNCTION     70.76    70.76     0  01:38         0.4         0.4       0.013
  HS02004842           JUNCTION      0.00    21.86     0  01:49           0       0.168       8.372
  HS02004837           JUNCTION     65.09    82.02     0  01:35       0.431       0.586       0.139
  HS02004830           JUNCTION      0.15    82.13     0  01:35     0.00423       0.576       0.215
  HS02004824           JUNCTION     81.60   164.05     0  01:38       0.463        1.04       0.053
  HS02004817           JUNCTION      0.60   166.60     0  01:39      0.0169        1.05       1.604
  HS02004807           JUNCTION     65.28   225.46     0  01:36       0.265         1.3       0.343
  HS02004802           JUNCTION      0.00   226.43     0  01:37           0         1.3       0.299
  HS02004799           JUNCTION     51.81   605.47     0  01:33       0.216        2.82       0.117
  HS02004792           JUNCTION    235.75   554.35     0  01:33        1.13        2.61       0.016
  HS02004788           JUNCTION     75.68   319.93     0  01:33       0.386        1.48       0.026
  HS02004785           JUNCTION      0.15   244.47     0  01:33     0.00423         1.1       0.047
  HS02004777           JUNCTION      0.03   244.67     0  01:32    0.000846         1.1       0.479
  HS02004770           JUNCTION    197.86   245.54     0  01:32       0.896         1.1       0.280
  HS02004480           JUNCTION      0.00   713.05     0  01:33           0        3.27       0.023
  HS02004479           JUNCTION      0.00   107.72     0  01:33           0       0.464       0.161
  HS02004478           JUNCTION      0.00   934.56     0  01:35           0        4.56       0.007
  YS02001745           JUNCTION    667.30   667.30     0  03:01        5.93        5.93       0.194
  YS02001748           JUNCTION      0.04   667.49     0  03:01     0.00127        5.92       0.379
  YS02001751           JUNCTION      0.01   667.72     0  03:01     0.00031         5.9       0.405
  YS02001754           JUNCTION      0.26   668.22     0  03:01     0.00733        5.89       0.416
  YS02001762           JUNCTION      0.00   369.28     0  01:35           0        3.51       0.601
  YS02001765           JUNCTION      0.00   370.36     0  01:35           0         3.5       0.696
  YS02001767           JUNCTION      0.54   369.82     0  01:35      0.0151        3.53       1.018
  YS02001770           JUNCTION    751.30  1114.41     0  03:01        6.45        8.91       0.346
  YS02001774           JUNCTION      0.00   851.17     0  03:08           0        7.29       0.345
  YS02001779           JUNCTION      0.01   851.17     0  02:39    0.000141        7.26       0.211
  YS02001882           JUNCTION      0.00    37.24     0  01:30           0      0.0265       7.668
  YS02001884           JUNCTION      0.00    59.08     0  01:29           0      0.0652      10.406
  YS02001759           JUNCTION    717.99   900.04     0  01:41        6.03        7.05       0.323
  YS02001887           JUNCTION    814.61   815.74     0  01:57        6.69        6.72       0.126
  YS02001890           JUNCTION      0.00   815.92     0  01:56           0        6.68       0.135
  YS02001898           JUNCTION      0.00   597.42     0  01:32           0        5.39       0.052
  YS02001901           JUNCTION      0.00   601.72     0  01:32           0        5.38       0.123
  YS02001904           JUNCTION      0.00   603.36     0  01:32           0        5.38       0.098
  YS02001907           JUNCTION      0.00  1427.83     0  03:01           0          14       0.166
  YS02001910           JUNCTION      0.00   911.21     0  03:01           0         8.6       0.145
  YS02001915           JUNCTION    557.90   911.08     0  03:01        4.87        8.65       0.067
  YS02001918           JUNCTION      0.00   430.46     0  01:32           0        3.81       0.040
  YS02001619           JUNCTION    574.80   574.80     0  03:01        5.02        5.02       0.236
  YS02001629           JUNCTION      0.00   280.29     0  01:26           0        2.08       1.360
  YS02001641           JUNCTION      0.00   472.10     0  01:28           0        6.13       0.338
  YS02001644           JUNCTION    644.82  1924.46     0  03:01        5.75        20.6       0.128
  YS02001652           JUNCTION      0.00   639.64     0  03:01           0        5.21       0.439
  YS02001655           JUNCTION      0.15   639.47     0  03:01     0.00434        5.23       0.482
  YS02001920           JUNCTION      2.87   407.86     0  01:32      0.0809        3.79       0.082
  YS02001923           JUNCTION      0.04   400.76     0  01:33     0.00106        3.69       0.049
  YS02001926           JUNCTION      0.05   473.82     0  01:33     0.00147        3.66       0.070
  YS02001929           JUNCTION    352.81   352.81     0  03:01        3.64        3.65       0.010
  YS02001658           JUNCTION      0.00   639.09     0  03:01           0        5.25       0.466
  YS02001661           JUNCTION      0.00   797.37     0  01:40           0        5.37       0.197
  YS02001664           JUNCTION    638.31   638.31     0  03:01        5.26        5.38       0.100
  YS02001622           JUNCTION      0.00   574.87     0  03:01           0        5.01       0.632
  YS02001633           JUNCTION    658.84   658.84     0  03:01        5.91        7.07       0.452
  YS02001649           JUNCTION      0.00  1447.55     0  03:01           0        12.5       0.295
  YS02001757           JUNCTION      0.00  2182.89     0  01:41           0        12.5       0.734
  YS02001895           JUNCTION      0.00   593.77     0  01:32           0        5.39       0.104
  YS02001625           JUNCTION      0.00   801.38     0  03:01           0        5.86       0.681
  YS02163301           JUNCTION      0.00   276.67     0  01:26           0        2.09       1.156
  YS02163601           JUNCTION      0.11   468.50     0  01:28      0.0031        6.14       0.488
  YS02164001           JUNCTION      0.00   469.23     0  01:28           0        6.12       0.329
  YS02001647           JUNCTION      0.00   846.70     0  03:17           0        9.57       0.296
  YSB1154              JUNCTION     59.56    59.56     0  01:33        0.26        0.26       0.557
  YSB6556              JUNCTION      0.00    59.44     0  01:33           0       0.261       0.488
  YSB1174              JUNCTION     51.10    51.10     0  01:30       0.195       0.195       0.659
  YSB1171              JUNCTION      0.00   108.28     0  01:32           0       0.462       1.395
  YS02006553           JUNCTION      0.00   732.13     0  04:03           0        7.59       0.196
  YS02006561           JUNCTION      0.00  1068.88     0  01:32           0        13.8       0.005
  YS02006556           JUNCTION      0.00   732.18     0  04:03           0         7.6       0.127
  YS02006558           JUNCTION    751.16  1067.48     0  01:32        6.28        13.8       0.032
  YS02001783           JUNCTION      0.00  1027.30     0  01:31           0        13.8       0.016
  YS02001784           JUNCTION      1.06  1028.63     0  01:31      0.0299        13.8       0.027
  YS02001786           JUNCTION      0.06  1028.73     0  01:31     0.00159        13.8       0.026
  YS02001788           JUNCTION      0.07  1011.15     0  01:31       0.002        13.8       0.016
  YS02001790           JUNCTION      0.15   983.90     0  01:54     0.00437        13.8       0.015
  YS02001791           JUNCTION      0.00   983.91     0  01:52           0        13.8       0.003
  YS02001793           JUNCTION      0.00   984.32     0  01:51           0        13.8      -0.006
  WSC                  OUTFALL       0.00  1373.06     0  01:47           0        21.1       0.000
  JK-storage           STORAGE       0.00  1031.39     0  01:30           0          14      -7.447
  CC-storage           STORAGE       0.00  2182.22     0  01:41           0        5.66       1.151
  XR-storage           STORAGE    1680.85  1680.85     0  03:01        21.3        21.9      -0.003
  
  
  **********************
  Node Surcharge Summary
  **********************
  
  Surcharging occurs when water rises above the top of the highest conduit.
  ---------------------------------------------------------------------
                                               Max. Height   Min. Depth
                                   Hours       Above Crown    Below Rim
  Node                 Type      Surcharged         Meters       Meters
  ---------------------------------------------------------------------
  WS02004401           JUNCTION        1.71          0.473        1.187
  WS02004402           JUNCTION        1.73          0.423        1.317
  WS02004403           JUNCTION        1.73          0.377        1.653
  WS02004404           JUNCTION        1.83          0.400        2.380
  WS02004406           JUNCTION        1.79          0.252        2.198
  WS02004409           JUNCTION        0.13          0.042        2.318
  WS02004410           JUNCTION        0.01          0.006        2.534
  WS02004413           JUNCTION        0.71          0.049        2.151
  WS02004405           JUNCTION        1.81          0.366        2.434
  WS02006109           JUNCTION        3.12          1.088        0.732
  WS02006110           JUNCTION        2.33          0.891        0.959
  WS02006111           JUNCTION        0.58          0.483        1.387
  WS02006112           JUNCTION        2.53          0.912        0.768
  WS02006113           JUNCTION        0.60          0.651        1.279
  WS02006115           JUNCTION        1.23          0.528        1.722
  WS02006116           JUNCTION        1.33          0.478        1.812
  WS02006230           JUNCTION        2.16          1.057        0.513
  WS02006231           JUNCTION        2.39          1.036        0.494
  WS02006232           JUNCTION        3.13          1.112        0.368
  WS02006234           JUNCTION        2.62          0.958        0.282
  WS02006235           JUNCTION        2.70          0.958        0.332
  WS02006238           JUNCTION        2.78          0.967        0.463
  WS02006240           JUNCTION        2.50          0.789        0.601
  WS02006242           JUNCTION        2.52          0.777        0.043
  WS02006243           JUNCTION        2.36          0.614        0.156
  WS02006245           JUNCTION        2.06          0.529        0.321
  WS02006247           JUNCTION        1.98          0.504        0.256
  WS02006248           JUNCTION        1.58          0.380        0.000
  WS02006249           JUNCTION        1.62          0.390        0.000
  WS02006239           JUNCTION        2.58          0.863        0.427
  WS02006251           JUNCTION        0.66          0.448        0.732
  WS02006252           JUNCTION        1.22          0.542        0.558
  WS02006253           JUNCTION        0.89          0.939        1.541
  WS02006256           JUNCTION        7.15          2.050        0.000
  WS02006228           JUNCTION        3.04          1.282        0.918
  WS02006229           JUNCTION        0.01          0.028        1.042
  HS02004817           JUNCTION        0.46          0.067        1.673
  YS02001745           JUNCTION        1.10          0.248        1.102
  YS02001748           JUNCTION        6.35          0.802        0.388
  YS02001751           JUNCTION        6.36          0.771        0.429
  YS02001754           JUNCTION        6.38          0.908        0.242
  YS02001762           JUNCTION        6.40          1.074        0.076
  YS02001765           JUNCTION        6.40          1.017        0.083
  YS02001767           JUNCTION        6.39          0.976        0.054
  YS02001770           JUNCTION        6.39          0.920        0.000
  YS02001774           JUNCTION        6.40          0.998        0.052
  YS02001779           JUNCTION        6.37          0.680        0.000
  YS02001882           JUNCTION        2.56          0.714        0.116
  YS02001884           JUNCTION        2.58          0.733        0.137
  YS02001759           JUNCTION        6.41          1.117        0.093
  YS02001887           JUNCTION        2.64          0.790        0.160
  YS02001890           JUNCTION        2.65          0.760        0.000
  YS02001898           JUNCTION        2.53          0.537        0.203
  YS02001901           JUNCTION        2.61          0.680        0.190
  YS02001904           JUNCTION        2.59          0.643        0.207
  YS02001907           JUNCTION        3.16          0.950        0.000
  YS02001910           JUNCTION        2.69          0.991        0.109
  YS02001915           JUNCTION        2.56          0.932        0.068
  YS02001918           JUNCTION        2.42          0.810        0.000
  YS02001619           JUNCTION        6.37          0.610        0.000
  YS02001629           JUNCTION        6.37          0.470        0.000
  YS02001641           JUNCTION        6.40          0.959        0.141
  YS02001644           JUNCTION        6.40          0.920        0.000
  YS02001652           JUNCTION        6.38          1.061        0.069
  YS02001655           JUNCTION        6.37          1.111        0.089
  YS02001920           JUNCTION        2.44          1.099        0.041
  YS02001923           JUNCTION        0.01          0.797        0.023
  YS02001926           JUNCTION        0.01          0.900        0.000
  YS02001929           JUNCTION        0.01          0.780        0.000
  YS02001658           JUNCTION        6.35          1.117        0.183
  YS02001661           JUNCTION        1.42          1.024        0.366
  YS02001622           JUNCTION        6.37          0.620        0.000
  YS02001633           JUNCTION        6.40          0.950        0.110
  YS02001649           JUNCTION        6.40          1.050        0.000
  YS02001757           JUNCTION        6.42          1.210        0.000
  YS02001895           JUNCTION        2.54          0.569        0.181
  YS02001625           JUNCTION        6.38          0.780        0.000
  YS02163301           JUNCTION        6.39          0.900        0.130
  YS02163601           JUNCTION        6.40          1.026        0.054
  YS02164001           JUNCTION        6.40          0.959        0.141
  YS02001647           JUNCTION        6.38          0.803        0.097
  YS02006553           JUNCTION        3.22          0.973        0.217
  YS02006561           JUNCTION        2.44          0.485        0.665
  YS02006556           JUNCTION        2.85          0.900        0.450
  YS02006558           JUNCTION        2.82          0.892        0.508
  YS02001783           JUNCTION        2.65          0.867        0.733
  YS02001784           JUNCTION        2.62          1.066        0.424
  YS02001786           JUNCTION        2.54          1.266        0.164
  YS02001788           JUNCTION        2.49          1.381        0.099
  YS02001790           JUNCTION        3.28          1.157        0.000
  YS02001791           JUNCTION        3.37          0.839        1.081
  YS02001793           JUNCTION        3.60          0.979        1.621
  
  
  *********************
  Node Flooding Summary
  *********************
  
  Flooding refers to all water that overflows a node, whether it ponds or not.
  --------------------------------------------------------------------------
                                                             Total   Maximum
                                 Maximum   Time of Max       Flood    Ponded
                        Hours       Rate    Occurrence      Volume     Depth
  Node                 Flooded       LPS   days hr:min    10^6 ltr    Meters
  --------------------------------------------------------------------------
  WS02006248              0.42    151.83      0  01:38       0.140     0.000
  WS02006249              0.84    350.43      0  01:32       0.288     0.000
  WS02006256              5.02    835.15      0  01:40      10.206     0.000
  YS02001770              1.18    263.13      0  03:01       0.545     0.000
  YS02001779              4.54    851.17      0  02:39       7.239     0.000
  YS02001890              1.74    299.08      0  01:56       1.275     0.000
  YS02001907              2.27   1197.37      0  03:01       6.359     0.000
  YS02001918              0.01     81.69      0  01:33       0.000     0.000
  YS02001619              0.01     96.19      0  01:27       0.000     0.000
  YS02001629              0.01    233.94      0  01:27       0.002     0.000
  YS02001644              5.51   1924.40      0  03:01      19.637     0.000
  YS02001926              0.01     12.08      0  01:33       0.000     0.000
  YS02001929              0.01    261.85      0  01:33       0.001     0.000
  YS02001622              0.01    100.81      0  01:27       0.000     0.000
  YS02001649              1.42    600.83      0  03:01       2.096     0.000
  YS02001757              0.70    179.42      0  03:01       0.231     0.000
  YS02001625              2.99    801.36      0  03:01       4.636     0.000
  YS02001790              0.01    195.89      0  01:31       0.000     0.000
  JK-storage              0.70    692.65      0  01:32       0.760     0.000
  XR-storage              6.08   1300.68      0  03:01      10.855     0.000
  
  
  **********************
  Storage Volume Summary
  **********************
  
  --------------------------------------------------------------------------------------------------
                         Average     Avg  Evap Exfil       Maximum     Max    Time of Max    Maximum
                          Volume    Pcnt  Pcnt  Pcnt        Volume    Pcnt     Occurrence    Outflow
  Storage Unit           1000 m3    Full  Loss  Loss       1000 m3    Full    days hr:min        LPS
  --------------------------------------------------------------------------------------------------
  JK-storage               0.152      52     0     0         0.291     100       0  01:32     983.00
  CC-storage               3.390      22     0     0         4.133      26       0  02:19     400.00
  XR-storage               0.858      93     0     0         0.926     100       0  01:45     380.00
  
  
  ***********************
  Outfall Loading Summary
  ***********************
  
  ---------------------------------------------------------------------------------------------------------------------------------
                         Flow       Avg       Max       Total         Total         Total         Total         Total         Total
                         Freq      Flow      Flow      Volume           COD            SS            TN            TP         NH4-N
  Outfall Node           Pcnt       LPS       LPS    10^6 ltr            kg            kg            kg            kg            kg
  ---------------------------------------------------------------------------------------------------------------------------------
  WSC                   99.99    778.63   1373.06      21.104      2633.215      4813.798       129.716        14.444        76.180
  ---------------------------------------------------------------------------------------------------------------------------------
  System                99.99    778.63   1373.06      21.104      2633.215      4813.798       129.716        14.444        76.180
  
  
  ********************
  Link Flow Summary
  ********************
  
  -----------------------------------------------------------------------------
                                 Maximum  Time of Max   Maximum    Max/    Max/
                                  |Flow|   Occurrence   |Veloc|    Full    Full
  Link                 Type          LPS  days hr:min     m/sec    Flow   Depth
  -----------------------------------------------------------------------------
  WS02003066WSF200     CONDUIT   1000.42     0  01:35      3.25    0.17    0.33
  WS02006287WS02006284 CONDUIT    934.56     0  01:35      2.63    0.43    0.46
  WS02006284WS02006280 CONDUIT    936.85     0  01:34      2.86    0.39    0.44
  WS02006280WS02006229 CONDUIT    976.70     0  01:34      4.53    0.21    0.75
  WS02006229WS02006228 CONDUIT    976.32     0  01:34      1.94    3.23    1.00
  WS02006256WS02006235 CONDUIT    263.52     0  05:22      3.73    2.79    1.00
  WS02006253WS02006251 CONDUIT    273.39     0  01:32      0.82    0.82    1.00
  WS02006252WS02006251 CONDUIT    401.01     0  07:29      3.19    1.47    1.00
  WS02006251WS02006249 CONDUIT    407.27     0  07:00      1.06    1.17    1.00
  WS02006249WS02006248 CONDUIT    328.72     0  07:01      1.09    1.80    1.00
  WS02006248WS02006247 CONDUIT    328.91     0  07:01      1.05    0.72    1.00
  WS02006247WS02006245 CONDUIT    328.09     0  07:28      1.01    2.60    1.00
  WS02006245WS02006243 CONDUIT    327.98     0  07:22      1.07    0.97    1.00
  WS02006243WS02006242 CONDUIT    327.81     0  07:28      0.91    0.70    1.00
  WS02006242WS02006240 CONDUIT    327.88     0  07:01      0.85    1.30    1.00
  WS02006240WS02006239 CONDUIT    328.49     0  07:01      0.93    1.03    1.00
  WS02006239WS02006238 CONDUIT    328.67     0  07:01      0.85    1.05    1.00
  WS02006238WS02006235 CONDUIT    328.97     0  07:22      0.85    0.73    1.00
  WS02006235WS02006234 CONDUIT    523.84     0  07:01      1.36    5.53    1.00
  WS02006234WS02006232 CONDUIT    523.22     0  07:01      1.36    1.06    1.00
  WS02006232WS02006231 CONDUIT    523.20     0  07:01      1.36    1.10    1.00
  WS02006231WS02006230 CONDUIT    523.09     0  07:01      1.38    7.93    1.00
  WS02006230WS02006229 CONDUIT    534.65     0  07:01      1.39   11.90    1.00
  WS02006228WS02006109 CONDUIT    976.27     0  01:34      1.94    4.27    1.00
  WS02006116WS02004401 CONDUIT   1015.51     0  01:34      1.29    1.40    1.00
  WS02006115WS02006116 CONDUIT   1015.37     0  01:34      1.29    1.30    1.00
  WS02006113WS02006111 CONDUIT    977.56     0  01:34      2.65    1.17    1.00
  WS02006112WS02006115 CONDUIT   1016.03     0  01:34      1.29    0.60    1.00
  WS02006111WS02006112 CONDUIT    977.34     0  01:34      1.94    0.46    1.00
  WS02006110WS02006113 CONDUIT    977.41     0  01:34      1.94    0.89    1.00
  WS02006109WS02006110 CONDUIT    977.37     0  01:34      1.94    1.88    1.00
  WS02004411WS02004412 CONDUIT    993.79     0  01:36      1.29    1.41    0.96
  WS02004401WS02004402 CONDUIT   1015.91     0  01:34      1.29    1.22    1.00
  WS02004413WS02003067 CONDUIT    995.18     0  01:35      1.62    0.43    0.73
  WS02004412WS02004413 CONDUIT    994.79     0  01:35      1.28    0.67    0.97
  WS02004410WS02004411 CONDUIT    993.43     0  01:36      1.27    1.36    0.99
  WS02004409WS02004410 CONDUIT   1008.02     0  01:34      1.28    1.30    1.00
  WS02004407WS02004409 CONDUIT   1015.82     0  01:34      1.85    0.36    0.71
  WS02004406WS02004407 CONDUIT   1018.43     0  01:34      1.72    0.46    0.71
  WS02004405WS02004406 CONDUIT   1018.26     0  01:34      1.30    2.01    1.00
  WS02004404WS02004405 CONDUIT   1017.66     0  01:34      1.30    9.97    1.00
  WS02004403WS02004404 CONDUIT   1017.21     0  01:34      1.30    0.74    1.00
  WS02004402WS02004403 CONDUIT   1016.64     0  01:34      1.29    1.46    1.00
  WS02004139WS02001211 CONDUIT    384.08     0  03:15      0.90    0.49    0.65
  WS02004138WS02004139 CONDUIT    394.13     0  00:00      3.62    0.08    0.47
  WS02003067WS02003066 CONDUIT    999.30     0  01:35      1.72    0.32    0.51
  WS02001213WS02003059 CONDUIT    403.50     0  03:15      0.89    0.67    0.88
  WS02001212WS02001213 CONDUIT    399.16     0  03:14      1.32    0.62    0.57
  WS02001211WS02001212 CONDUIT    395.62     0  03:14      0.78    0.30    0.72
  WS02003072WS02003073 CONDUIT   1371.32     0  01:46      1.98    2.96    0.59
  WS02003069WS02003072 CONDUIT   1371.34     0  01:46      1.84    0.66    0.63
  WS02003060WS02003069 CONDUIT   1371.10     0  01:45      2.04    0.54    0.57
  WS02003059WS02003060 CONDUIT    409.06     0  03:15      0.95    0.27    0.78
  HS02004901HS02004770 CONDUIT     47.75     0  01:32      0.11    0.18    0.61
  HS02004876HS02004881 CONDUIT    177.09     0  01:33      1.41    1.88    0.19
  HS02004870HS02004876 CONDUIT    143.30     0  01:35      0.95    0.10    0.22
  HS02004842HS02004848 CONDUIT     21.86     0  01:49      0.09    0.01    0.35
  HS02004837HS02004842 CONDUIT     22.38     0  01:49      0.42    0.01    0.37
  HS02004830HS02004837 CONDUIT     81.98     0  01:35      0.70    0.08    0.18
  HS02004824HS02004830 CONDUIT     82.87     0  01:37      0.63    0.11    0.25
  HS02004817HS02004824 CONDUIT    166.00     0  01:39      0.37    0.07    0.64
  HS02004770HS02004777 CONDUIT    244.64     0  01:32      0.57    0.45    0.62
  HS02004799HS02004480 CONDUIT    605.42     0  01:33      1.21    0.76    0.71
  HS02004792HS02004799 CONDUIT    554.25     0  01:33      1.36    0.34    0.58
  HS02004788HS02004792 CONDUIT    319.85     0  01:34      1.40    0.21    0.33
  HS02004785HS02004788 CONDUIT    244.45     0  01:33      1.02    1.84    0.34
  HS02004777HS02004785 CONDUIT    244.32     0  01:33      0.67    0.30    0.52
  HS02004480HS02004478 CONDUIT    712.97     0  01:33      1.74    3.00    0.59
  HS02004479HS02004480 CONDUIT    107.66     0  01:33      0.45    0.10    0.68
  HS02004862HS02004870 CONDUIT    109.57     0  01:36      0.90    0.12    0.17
  HS02004848HS02004852 CONDUIT     51.63     0  01:36      0.58    0.06    0.13
  HS02004856HS02004862 CONDUIT     76.86     0  01:35      0.67    0.08    0.16
  HS02004852HS02004856 CONDUIT     51.73     0  01:36      0.39    0.06    0.19
  HS02004802HS02004478 CONDUIT    227.63     0  01:38      0.57    0.20    0.58
  HS02004478WS02006287 CONDUIT    934.63     0  01:35      2.37    0.26    0.44
  HS02004817HS02004807 CONDUIT    166.70     0  01:39      0.30    0.10    0.81
  HS02004807HS02004802 CONDUIT    226.43     0  01:37      0.51    0.43    0.64
  YS02001759YS02001757 CONDUIT    900.09     0  01:41      1.15    0.64    1.00
  YS02001762YS02001759 CONDUIT    369.11     0  01:32      0.47    0.43    1.00
  YS02001765YS02001762 CONDUIT    369.28     0  01:35      0.47    0.35    1.00
  YS02001770YS02001767 CONDUIT    369.29     0  01:35      0.50    1.46    1.00
  YS02001774YS02001770 CONDUIT    851.17     0  03:08      1.08    0.54    1.00
  YS02001779YS02001774 CONDUIT    851.17     0  02:39      1.08    0.43    1.00
  YS02001649YS02001757 CONDUIT    889.02     0  01:40      1.13    0.54    1.00
  YS02001767YS02001765 CONDUIT    370.36     0  01:35      0.48    0.47    1.00
  YS02006561YS02001783 CONDUIT   1027.30     0  01:31      2.28    0.53    1.00
  YS02001783YS02001784 CONDUIT   1027.57     0  01:31      2.04    1.42    1.00
  YS02001784YS02001785 CONDUIT   1028.67     0  01:31      2.08    2.39    1.00
  YS02001788YS02001790 CONDUIT    983.74     0  01:54      2.49    0.73    1.00
  YS02001790YS02001791 CONDUIT    983.91     0  01:52      2.97    1.07    1.00
  YS02001791YS02001793 CONDUIT    984.32     0  01:51      5.83    0.42    1.00
  YS02001910YS02001907 CONDUIT    911.44     0  03:01      1.16    0.51    1.00
  YS02001786YS02001788 CONDUIT   1011.08     0  01:31      2.32    1.95    1.00
  YS02001915YS02001910 CONDUIT    911.21     0  03:01      1.16    0.45    1.00
  YS02001918YS02001915 CONDUIT    430.46     0  01:32      0.58    0.24    1.00
  YS02001923YS02001920 CONDUIT    400.72     0  01:33      0.91    0.18    1.00
  YS02001926YS02001923 CONDUIT    473.77     0  01:33      1.00    0.68    1.00
  YS02001929YS02001926 CONDUIT    352.43     0  03:01      1.07    0.17    1.00
  YS02001920YS02001918 CONDUIT    404.99     0  01:32      0.85    0.39    1.00
  YS02001629YS02163301 CONDUIT    280.29     0  01:26      0.36    0.35    1.00
  YS02001619YS02001622 CONDUIT    574.87     0  03:01      0.86    0.85    1.00
  YS02001622YS02001625 CONDUIT    575.11     0  03:01      0.73    0.31    1.00
  YS02001625YS02001629 CONDUIT    258.42     0  01:26      0.39    0.12    1.00
  YS02163301YS02001633 CONDUIT    276.67     0  01:26      0.35    0.26    1.00
  YS02163601YS02164001 CONDUIT    469.23     0  01:28      0.60    0.42    1.00
  YS02164001YS02001641 CONDUIT    472.10     0  01:28      0.60    0.64    1.00
  YS02001641YS02001644 CONDUIT    474.32     0  01:28      0.60    1.53    1.00
  YS02001647YS02001649 CONDUIT    846.70     0  03:17      1.08    0.45    1.00
  YS02006553YS02006556 CONDUIT    732.18     0  04:03      0.93    0.63    1.00
  YS02006556YS02006558 CONDUIT    732.46     0  04:03      0.93    0.58    1.00
  YSB6556YSB1171       CONDUIT     59.53     0  01:34      0.17    0.06    0.88
  YS02001907YS02006553 CONDUIT    732.13     0  04:03      0.81    0.86    1.00
  YS02006558YS02006561 CONDUIT   1068.88     0  01:32      3.79    2.36    1.00
  YS02001633YS02163601 CONDUIT    468.39     0  01:28      0.60    0.49    1.00
  YS02001644YS02001647 CONDUIT    846.70     0  03:17      1.08    0.50    1.00
  YS02001745YS02001748 CONDUIT    667.45     0  03:01      1.86    0.26    1.00
  YS02001748YS02001751 CONDUIT    667.71     0  03:01      1.39    0.34    1.00
  YS02001751YS02001754 CONDUIT    667.96     0  03:01      1.15    0.32    1.00
  YS02001754YS02001757 CONDUIT    668.42     0  03:01      0.85    0.27    1.00
  YS02001882YS02001884 CONDUIT     37.24     0  01:30      0.22    0.04    1.00
  YS02001884YS02001887 CONDUIT     59.08     0  01:29      0.16    0.08    1.00
  YS02001890YS02001895 CONDUIT    593.77     0  01:32      0.76    0.28    1.00
  YS02001895YS02001898 CONDUIT    597.42     0  01:32      0.76    1.04    1.00
  YS02001898YS02001901 CONDUIT    601.72     0  01:32      0.77    0.39    1.00
  YS02001901YS02001904 CONDUIT    603.36     0  01:32      0.77    0.94    1.00
  YS02001904YS02001907 CONDUIT    602.81     0  01:32      0.77    0.21    1.00
  YS02001887YS02001890 CONDUIT    815.92     0  01:56      1.04    1.40    1.00
  YS02001652YS02001649 CONDUIT    639.72     0  03:01      0.84    0.32    1.00
  YS02001655YS02001652 CONDUIT    639.64     0  03:01      1.25    0.31    1.00
  YS02001658YS02001655 CONDUIT    639.32     0  03:01      1.61    0.27    1.00
  YS02001661YS02001658 CONDUIT    639.09     0  03:01      1.99    0.25    1.00
  YS02001664YS02001661 CONDUIT    797.37     0  01:40      1.90    0.25    0.84
  YSB1154YSB6556       CONDUIT     59.44     0  01:33      0.17    0.11    0.84
  YSB1174YSB1171       CONDUIT     50.34     0  01:30      0.14    0.08    0.92
  YSB1171HS02004479    CONDUIT    107.72     0  01:33      0.54    0.07    0.78
  HS02004881HS02006253 CONDUIT    269.58     0  01:32      2.77    0.05    0.56
  YS02001793JiankangQianchi CONDUIT   1031.39     0  01:30     16.57    0.08    1.00
  YS02001757CaochengTiaoxuchi CONDUIT   2182.22     0  01:41      3.80    0.96    1.00
  WSF200WS02003060     CONDUIT   1003.34     0  01:36      2.40    0.22    0.45
  1                    CONDUIT   1373.06     0  01:47      3.61    0.48    0.49
  CC-Pump-1            PUMP       200.00     0  06:50              1.00
  CC-Pump-2            PUMP       200.00     0  07:20              1.00
  JK-Pump-1            PUMP       300.00     0  01:40              1.00
  JK-Pump-2            PUMP       683.00     0  01:40              1.00
  XR-Pump-1            PUMP        95.00     0  00:00              1.00
  XR-Pump-2            PUMP        95.00     0  00:00              1.00
  XR-Pump-3            PUMP        95.00     0  00:00              1.00
  XR-Pump-4            PUMP        95.00     0  00:00              1.00
  
  
  ***************************
  Flow Classification Summary
  ***************************
  
  -------------------------------------------------------------------------------------
                      Adjusted    ---------- Fraction of Time in Flow Class ---------- 
                       /Actual         Up    Down  Sub   Sup   Up    Down  Norm  Inlet 
  Conduit               Length    Dry  Dry   Dry   Crit  Crit  Crit  Crit  Ltd   Ctrl  
  -------------------------------------------------------------------------------------
  WS02003066WSF200        1.00   0.01  0.04  0.00  0.00  0.95  0.00  0.00  0.52  0.00
  WS02006287WS02006284    1.00   0.04  0.01  0.00  0.61  0.34  0.00  0.00  0.61  0.00
  WS02006284WS02006280    1.00   0.05  0.00  0.00  0.00  0.00  0.00  0.95  0.00  0.00
  WS02006280WS02006229    1.00   0.05  0.00  0.00  0.06  0.06  0.00  0.83  0.02  0.00
  WS02006229WS02006228    1.00   0.00  0.00  0.00  1.00  0.00  0.00  0.00  0.00  0.00
  WS02006256WS02006235    1.00   0.02  0.00  0.00  0.98  0.00  0.00  0.00  0.00  0.00
  WS02006253WS02006251    1.00   0.01  0.03  0.00  0.95  0.00  0.01  0.00  0.00  0.00
  WS02006252WS02006251    1.00   0.09  0.08  0.00  0.15  0.00  0.68  0.00  0.00  0.00
  WS02006251WS02006249    1.00   0.00  0.00  0.00  1.00  0.00  0.00  0.00  0.33  0.00
  WS02006249WS02006248    1.00   0.00  0.01  0.00  0.88  0.00  0.12  0.00  0.00  0.00
  WS02006248WS02006247    1.00   0.01  0.00  0.00  0.98  0.00  0.00  0.02  0.14  0.00
  WS02006247WS02006245    1.00   0.01  0.00  0.00  0.96  0.00  0.00  0.03  0.00  0.00
  WS02006245WS02006243    1.00   0.01  0.00  0.00  0.92  0.00  0.00  0.07  0.01  0.00
  WS02006243WS02006242    1.00   0.01  0.00  0.00  0.98  0.00  0.00  0.01  0.15  0.00
  WS02006242WS02006240    1.00   0.02  0.01  0.00  0.97  0.00  0.01  0.00  0.00  0.00
  WS02006240WS02006239    1.00   0.02  0.00  0.00  0.94  0.00  0.00  0.04  0.02  0.00
  WS02006239WS02006238    1.00   0.02  0.00  0.00  0.98  0.00  0.00  0.00  0.02  0.00
  WS02006238WS02006235    1.00   0.02  0.00  0.00  0.98  0.00  0.00  0.00  0.00  0.00
  WS02006235WS02006234    1.00   0.02  0.00  0.00  0.97  0.00  0.01  0.00  0.00  0.00
  WS02006234WS02006232    1.00   0.02  0.00  0.00  0.98  0.00  0.00  0.00  0.00  0.00
  WS02006232WS02006231    1.00   0.02  0.00  0.00  0.98  0.00  0.00  0.00  0.00  0.00
  WS02006231WS02006230    1.00   0.02  0.00  0.00  0.60  0.00  0.38  0.00  0.00  0.00
  WS02006230WS02006229    1.00   0.00  0.00  0.00  0.99  0.00  0.00  0.01  0.00  0.00
  WS02006228WS02006109    1.00   0.00  0.00  0.00  1.00  0.00  0.00  0.00  0.00  0.00
  WS02006116WS02004401    1.00   0.03  0.00  0.00  0.97  0.00  0.00  0.00  0.00  0.00
  WS02006115WS02006116    1.00   0.03  0.00  0.00  0.97  0.00  0.00  0.00  0.00  0.00
  WS02006113WS02006111    1.00   0.02  0.00  0.00  0.16  0.82  0.00  0.00  0.18  0.00
  WS02006112WS02006115    1.00   0.02  0.01  0.00  0.97  0.00  0.00  0.00  0.00  0.00
  WS02006111WS02006112    1.00   0.02  0.00  0.00  0.97  0.00  0.00  0.00  0.69  0.00
  WS02006110WS02006113    1.00   0.00  0.02  0.00  0.98  0.00  0.00  0.00  0.00  0.00
  WS02006109WS02006110    1.00   0.00  0.00  0.00  0.99  0.00  0.00  0.00  0.00  0.00
  WS02004411WS02004412    1.00   0.04  0.00  0.00  0.96  0.00  0.00  0.00  0.00  0.00
  WS02004401WS02004402    1.00   0.03  0.00  0.00  0.97  0.00  0.00  0.00  0.00  0.00
  WS02004413WS02003067    1.00   0.04  0.00  0.00  0.00  0.00  0.95  0.00  0.00  0.00
  WS02004412WS02004413    1.00   0.04  0.00  0.00  0.96  0.00  0.00  0.00  0.00  0.00
  WS02004410WS02004411    1.00   0.04  0.00  0.00  0.96  0.00  0.00  0.00  0.00  0.00
  WS02004409WS02004410    1.00   0.04  0.00  0.00  0.96  0.00  0.00  0.00  0.00  0.00
  WS02004407WS02004409    1.00   0.04  0.00  0.00  0.96  0.00  0.00  0.00  0.88  0.00
  WS02004406WS02004407    1.00   0.00  0.04  0.00  0.96  0.00  0.00  0.00  0.00  0.00
  WS02004405WS02004406    1.00   0.00  0.00  0.00  1.00  0.00  0.00  0.00  0.04  0.00
  WS02004404WS02004405    1.00   0.00  0.00  0.00  1.00  0.00  0.00  0.00  0.00  0.00
  WS02004403WS02004404    1.00   0.00  0.03  0.00  0.97  0.00  0.00  0.00  0.00  0.00
  WS02004402WS02004403    1.00   0.03  0.00  0.00  0.97  0.00  0.00  0.00  0.00  0.00
  WS02004139WS02001211    1.00   0.00  0.00  0.00  1.00  0.00  0.00  0.00  0.00  0.00
  WS02004138WS02004139    1.00   0.00  0.00  0.00  1.00  0.00  0.00  0.00  1.00  0.00
  WS02003067WS02003066    1.00   0.05  0.00  0.00  0.95  0.00  0.00  0.00  0.00  0.00
  WS02001213WS02003059    1.00   0.00  0.00  0.00  1.00  0.00  0.00  0.00  0.00  0.00
  WS02001212WS02001213    1.00   0.00  0.00  0.00  0.91  0.00  0.09  0.00  0.00  0.00
  WS02001211WS02001212    1.00   0.00  0.00  0.00  1.00  0.00  0.00  0.00  0.00  0.00
  WS02003072WS02003073    1.00   0.00  0.00  0.00  0.00  0.00  0.00  1.00  0.00  0.00
  WS02003069WS02003072    1.00   0.00  0.00  0.00  1.00  0.00  0.00  0.00  0.07  0.00
  WS02003060WS02003069    1.00   0.00  0.00  0.00  0.99  0.01  0.00  0.00  0.05  0.00
  WS02003059WS02003060    1.00   0.00  0.00  0.00  1.00  0.00  0.00  0.00  0.00  0.00
  HS02004901HS02004770    1.00   0.05  0.00  0.00  0.95  0.00  0.00  0.00  0.00  0.00
  HS02004876HS02004881    1.00   0.01  0.00  0.00  0.77  0.23  0.00  0.00  0.00  0.00
  HS02004870HS02004876    1.00   0.00  0.00  0.00  1.00  0.00  0.00  0.00  0.95  0.00
  HS02004842HS02004848    1.00   0.00  0.05  0.00  0.95  0.00  0.00  0.00  0.53  0.00
  HS02004837HS02004842    1.00   0.00  0.00  0.00  1.00  0.00  0.00  0.00  0.11  0.00
  HS02004830HS02004837    1.00   0.00  0.00  0.00  1.00  0.00  0.00  0.00  0.99  0.00
  HS02004824HS02004830    1.00   0.00  0.00  0.00  1.00  0.00  0.00  0.00  0.03  0.00
  HS02004817HS02004824    1.00   0.00  0.00  0.00  1.00  0.00  0.00  0.00  0.86  0.00
  HS02004770HS02004777    1.00   0.00  0.05  0.00  0.95  0.00  0.00  0.00  0.01  0.00
  HS02004799HS02004480    1.00   0.00  0.01  0.00  0.95  0.00  0.04  0.00  0.00  0.00
  HS02004792HS02004799    1.00   0.00  0.00  0.00  1.00  0.00  0.00  0.00  0.98  0.00
  HS02004788HS02004792    1.00   0.00  0.00  0.00  1.00  0.00  0.00  0.00  0.98  0.00
  HS02004785HS02004788    1.00   0.00  0.00  0.00  1.00  0.00  0.00  0.00  0.00  0.00
  HS02004777HS02004785    1.00   0.00  0.00  0.00  1.00  0.00  0.00  0.00  0.10  0.00
  HS02004480HS02004478    1.00   0.05  0.00  0.00  0.65  0.00  0.00  0.31  0.00  0.00
  HS02004479HS02004480    1.00   0.01  0.00  0.00  0.99  0.00  0.00  0.00  0.10  0.00
  HS02004862HS02004870    1.00   0.00  0.00  0.00  1.00  0.00  0.00  0.00  0.02  0.00
  HS02004848HS02004852    1.00   0.05  0.00  0.00  0.95  0.00  0.00  0.00  0.83  0.00
  HS02004856HS02004862    1.00   0.00  0.05  0.00  0.95  0.00  0.00  0.00  0.85  0.00
  HS02004852HS02004856    1.00   0.05  0.00  0.00  0.95  0.00  0.00  0.00  0.69  0.00
  HS02004802HS02004478    1.00   0.05  0.00  0.00  0.95  0.00  0.00  0.00  0.01  0.00
  HS02004478WS02006287    1.00   0.05  0.00  0.00  0.68  0.27  0.00  0.00  0.58  0.00
  HS02004817HS02004807    1.00   0.00  0.05  0.00  0.95  0.00  0.00  0.00  0.01  0.00
  HS02004807HS02004802    1.00   0.05  0.00  0.00  0.95  0.00  0.00  0.00  0.00  0.00
  YS02001759YS02001757    1.00   0.00  0.00  0.00  1.00  0.00  0.00  0.00  0.15  0.00
  YS02001762YS02001759    1.00   0.00  0.00  0.00  1.00  0.00  0.00  0.00  0.01  0.00
  YS02001765YS02001762    1.00   0.00  0.00  0.00  1.00  0.00  0.00  0.00  0.13  0.00
  YS02001770YS02001767    1.00   0.00  0.00  0.00  1.00  0.00  0.00  0.00  0.00  0.00
  YS02001774YS02001770    1.00   0.00  0.05  0.00  0.95  0.00  0.00  0.00  0.01  0.00
  YS02001779YS02001774    1.00   0.00  0.00  0.00  1.00  0.00  0.00  0.00  0.15  0.00
  YS02001649YS02001757    1.00   0.00  0.00  0.00  1.00  0.00  0.00  0.00  0.15  0.00
  YS02001767YS02001765    1.00   0.00  0.00  0.00  1.00  0.00  0.00  0.00  0.00  0.00
  YS02006561YS02001783    1.00   0.06  0.00  0.00  0.42  0.52  0.00  0.00  0.37  0.00
  YS02001783YS02001784    1.00   0.00  0.06  0.00  0.94  0.00  0.00  0.00  0.00  0.00
  YS02001784YS02001785    1.00   0.00  0.00  0.00  1.00  0.00  0.00  0.00  0.15  0.00
  YS02001788YS02001790    1.00   0.00  0.00  0.00  0.48  0.52  0.00  0.00  0.29  0.00
  YS02001790YS02001791    1.00   0.00  0.00  0.00  0.44  0.56  0.00  0.00  0.35  0.00
  YS02001791YS02001793    1.00   0.00  0.00  0.00  0.46  0.54  0.00  0.00  0.02  0.00
  YS02001910YS02001907    1.00   0.00  0.00  0.00  0.99  0.00  0.00  0.01  0.11  0.00
  YS02001786YS02001788    1.00   0.00  0.00  0.00  0.47  0.53  0.00  0.00  0.00  0.00
  YS02001915YS02001910    1.00   0.00  0.00  0.00  0.99  0.01  0.00  0.00  0.12  0.00
  YS02001918YS02001915    1.00   0.00  0.00  0.00  0.99  0.00  0.00  0.00  0.44  0.00
  YS02001923YS02001920    1.00   0.00  0.00  0.00  1.00  0.00  0.00  0.00  0.65  0.00
  YS02001926YS02001923    1.00   0.00  0.02  0.00  0.29  0.00  0.69  0.00  0.00  0.00
  YS02001929YS02001926    1.00   0.00  0.05  0.00  0.95  0.00  0.00  0.00  0.55  0.00
  YS02001920YS02001918    1.00   0.00  0.00  0.00  1.00  0.00  0.00  0.00  0.00  0.00
  YS02001629YS02163301    1.00   0.05  0.00  0.00  0.95  0.00  0.00  0.00  0.00  0.00
  YS02001619YS02001622    1.00   0.05  0.00  0.00  0.95  0.00  0.00  0.00  0.00  0.00
  YS02001622YS02001625    1.00   0.05  0.00  0.00  0.95  0.00  0.00  0.00  0.02  0.00
  YS02001625YS02001629    1.00   0.05  0.01  0.00  0.93  0.00  0.01  0.00  0.00  0.00
  YS02163301YS02001633    1.00   0.00  0.05  0.00  0.95  0.00  0.00  0.00  0.00  0.00
  YS02163601YS02164001    1.00   0.00  0.03  0.00  0.97  0.00  0.00  0.00  0.00  0.00
  YS02164001YS02001641    1.00   0.00  0.02  0.00  0.97  0.00  0.00  0.00  0.05  0.00
  YS02001641YS02001644    1.00   0.00  0.00  0.00  1.00  0.00  0.00  0.00  0.00  0.00
  YS02001647YS02001649    1.00   0.00  0.05  0.00  0.95  0.00  0.00  0.00  0.01  0.00
  YS02006553YS02006556    1.00   0.00  0.00  0.00  1.00  0.00  0.00  0.00  0.03  0.00
  YS02006556YS02006558    1.00   0.00  0.00  0.00  1.00  0.00  0.00  0.00  0.00  0.00
  YSB6556YSB1171          1.00   0.01  0.03  0.00  0.95  0.00  0.00  0.00  0.00  0.00
  YS02001907YS02006553    1.00   0.00  0.01  0.00  0.99  0.00  0.00  0.00  0.00  0.00
  YS02006558YS02006561    1.00   0.06  0.00  0.00  0.29  0.66  0.00  0.00  0.38  0.00
  YS02001633YS02163601    1.00   0.00  0.00  0.00  1.00  0.00  0.00  0.00  0.14  0.00
  YS02001644YS02001647    1.00   0.00  0.05  0.00  0.95  0.00  0.00  0.00  0.00  0.00
  YS02001745YS02001748    1.00   0.00  0.00  0.00  0.92  0.00  0.00  0.08  0.00  0.00
  YS02001748YS02001751    1.00   0.00  0.00  0.00  0.98  0.02  0.00  0.00  0.13  0.00
  YS02001751YS02001754    1.00   0.00  0.00  0.00  0.94  0.00  0.00  0.06  0.01  0.00
  YS02001754YS02001757    1.00   0.00  0.00  0.00  1.00  0.00  0.00  0.00  0.15  0.00
  YS02001882YS02001884    1.00   0.05  0.00  0.00  0.95  0.00  0.00  0.00  0.00  0.00
  YS02001884YS02001887    1.00   0.02  0.02  0.00  0.96  0.00  0.00  0.00  0.00  0.00
  YS02001890YS02001895    1.00   0.00  0.05  0.00  0.95  0.00  0.00  0.00  0.00  0.00
  YS02001895YS02001898    1.00   0.05  0.00  0.00  0.94  0.00  0.01  0.00  0.00  0.00
  YS02001898YS02001901    1.00   0.05  0.00  0.00  0.95  0.00  0.00  0.00  0.00  0.00
  YS02001901YS02001904    1.00   0.05  0.00  0.00  0.95  0.00  0.00  0.00  0.00  0.00
  YS02001904YS02001907    1.00   0.00  0.05  0.00  0.95  0.00  0.00  0.00  0.00  0.00
  YS02001887YS02001890    1.00   0.00  0.00  0.00  0.99  0.00  0.01  0.00  0.00  0.00
  YS02001652YS02001649    1.00   0.00  0.00  0.00  1.00  0.00  0.00  0.00  0.14  0.00
  YS02001655YS02001652    1.00   0.00  0.00  0.00  0.94  0.00  0.00  0.06  0.01  0.00
  YS02001658YS02001655    1.00   0.00  0.05  0.00  0.93  0.02  0.00  0.00  0.01  0.00
  YS02001661YS02001658    1.00   0.05  0.00  0.00  0.92  0.03  0.00  0.00  0.00  0.00
  YS02001664YS02001661    1.00   0.05  0.00  0.00  0.92  0.03  0.00  0.00  0.06  0.00
  YSB1154YSB6556          1.00   0.05  0.00  0.00  0.95  0.00  0.00  0.00  0.01  0.00
  YSB1174YSB1171          1.00   0.02  0.02  0.00  0.97  0.00  0.00  0.00  0.00  0.00
  YSB1171HS02004479       1.00   0.01  0.00  0.00  0.98  0.00  0.00  0.00  0.09  0.00
  HS02004881HS02006253    1.00   0.02  0.00  0.00  0.49  0.03  0.00  0.46  0.41  0.00
  YS02001793JiankangQianchi    1.00   0.00  0.00  0.00  0.64  0.36  0.00  0.00  0.30  0.00
  YS02001757CaochengTiaoxuchi    1.00   0.00  0.07  0.00  0.90  0.03  0.00  0.00  0.00  0.00
  WSF200WS02003060        1.00   0.00  0.01  0.00  0.97  0.03  0.00  0.00  0.50  0.00
  1                       1.00   0.00  0.00  0.00  0.00  1.00  0.00  0.00  0.52  0.00
  
  
  *************************
  Conduit Surcharge Summary
  *************************
  
  ----------------------------------------------------------------------------
                                                           Hours        Hours 
                         --------- Hours Full --------   Above Full   Capacity
  Conduit                Both Ends  Upstream  Dnstream   Normal Flow   Limited
  ----------------------------------------------------------------------------
  WS02006280WS02006229        0.01      0.01      0.01      0.01         0.01
  WS02006229WS02006228        3.04      3.22      3.04      4.49         3.04
  WS02006256WS02006235        5.88      5.88      7.15      5.31         0.01
  WS02006253WS02006251        1.45      1.45      1.53      0.01         0.01
  WS02006252WS02006251        0.72      0.72      1.22      0.54         0.01
  WS02006251WS02006249        1.47      1.47      1.62      0.26         0.25
[...]
  YS02001649YS02001757        6.40      6.40      6.42      0.01         0.01
  YS02001767YS02001765        6.39      6.39      6.40      0.01         0.01
  YS02006561YS02001783        2.44      2.44      2.65      0.01         0.01
  YS02001783YS02001784        2.62      2.65      2.62      2.89         2.62
  YS02001784YS02001785        2.54      2.62      2.54      3.63         2.54
  YS02001788YS02001790        2.49      2.49      3.28      0.01         0.01
  YS02001790YS02001791        3.28      3.28      3.37      2.59         2.57
  YS02001791YS02001793        3.37      3.37      3.67      0.01         0.01
  YS02001910YS02001907        2.69      2.69      3.16      0.01         0.01
  YS02001786YS02001788        2.49      2.54      2.49      3.28         2.49
  YS02001915YS02001910        2.56      2.56      2.69      0.01         0.01
  YS02001918YS02001915        2.42      2.42      2.56      0.01         0.01
  YS02001923YS02001920        2.25      2.25      2.44      0.01         0.01
  YS02001926YS02001923        0.01      0.01      0.01      0.01         0.01
  YS02001929YS02001926        0.01      0.01      0.01      0.01         0.01
  YS02001920YS02001918        2.42      2.42      2.44      0.01         0.01
  YS02001629YS02163301        6.38      6.38      6.39      0.01         0.01
  YS02001619YS02001622        6.37      6.37      6.37      0.01         0.03
  YS02001622YS02001625        6.37      6.37      6.38      0.01         0.01
  YS02001625YS02001629        6.37      6.37      6.38      0.01         0.01
  YS02163301YS02001633        6.39      6.39      6.40      0.01         0.01
  YS02163601YS02164001        6.40      6.40      6.40      0.01         0.01
  YS02164001YS02001641        6.40      6.40      6.40      0.01         0.02
  YS02001641YS02001644        6.40      6.40      6.40      3.17         3.32
  YS02001647YS02001649        6.38      6.38      6.40      0.01         0.01
  YS02006553YS02006556        2.85      2.85      3.21      0.01         0.01
  YS02006556YS02006558        2.94      2.94      3.25      0.01         0.01
  YSB6556YSB1171              0.01      0.01      0.58      0.01         0.01
  YS02001907YS02006553        3.65      3.65      3.87      0.01         0.01
  YS02006558YS02006561        2.51      2.82      2.51      3.50         2.51
  YS02001633YS02163601        6.40      6.40      6.40      0.01         0.01
  YS02001644YS02001647        6.38      6.38      6.40      0.01         0.01
  YS02001745YS02001748        1.10      1.10      6.35      0.01         0.01
  YS02001748YS02001751        6.35      6.35      6.36      0.01         0.01
  YS02001751YS02001754        6.36      6.36      6.38      0.01         0.01
  YS02001754YS02001757        6.38      6.38      6.42      0.01         0.01
  YS02001882YS02001884        2.56      2.56      2.58      0.01         0.01
  YS02001884YS02001887        2.61      2.61      2.64      0.01         0.01
  YS02001890YS02001895        2.54      2.54      2.70      0.01         0.01
  YS02001895YS02001898        2.53      2.53      2.54      0.01         0.01
  YS02001898YS02001901        2.55      2.55      2.61      0.01         0.01
  YS02001901YS02001904        2.59      2.59      2.61      0.01         0.01
  YS02001904YS02001907        2.59      2.59      3.22      0.01         0.01
  YS02001887YS02001890        2.65      2.65      2.67      1.66         0.01
  YS02001652YS02001649        6.38      6.38      6.40      0.01         0.01
  YS02001655YS02001652        6.37      6.37      6.38      0.01         0.01
  YS02001658YS02001655        6.35      6.35      6.37      0.01         0.01
  YS02001661YS02001658        1.41      1.41      6.35      0.01         0.01
  YS02001664YS02001661        0.01      0.01      2.38      0.01         0.01
  YSB1174YSB1171              0.01      0.01      0.32      0.01         0.01
  HS02004881HS02006253        0.01      0.01      0.89      0.01         0.01
  YS02001793JiankangQianchi        3.60      3.60      5.35      0.01         0.01
  YS02001757CaochengTiaoxuchi        5.98      5.98      6.42      0.01         0.01
  
  
  ***************
  Pumping Summary
  ***************
  
  ---------------------------------------------------------------------------------------------------------
                                                  Min       Avg       Max     Total     Power    % Time Off
                        Percent   Number of      Flow      Flow      Flow    Volume     Usage    Pump Curve
  Pump                 Utilized   Start-Ups       LPS       LPS       LPS  10^6 ltr     Kw-hr    Low   High
  ---------------------------------------------------------------------------------------------------------
  CC-Pump-1               29.78           4      0.00    136.84    200.00     1.080      0.93    0.0    0.0
  CC-Pump-2               10.64           1      0.00     93.34    200.00     0.360      0.50    0.0    0.0
  JK-Pump-1               70.21           4      0.00    237.21    300.00     4.858     60.75    0.0    0.0
  JK-Pump-2               65.96           3      0.00    456.26    683.00     9.490    104.45    0.0   98.1
  XR-Pump-1              100.00           1      0.00     95.00     95.00     2.679     20.73    0.0    0.0
  XR-Pump-2              100.00           2      0.00     91.98     95.00     2.565     18.53    0.0    0.0
  XR-Pump-3               95.73           3      0.00     92.38     95.00     2.451     16.06    0.0    0.0
  XR-Pump-4               95.73           3      0.00     92.38     95.00     2.451     16.06    0.0    0.0
  
  
  ***************************
  Link Pollutant Load Summary
  ***************************
  
  ------------------------------------------------------------------------------------------
                                 COD            SS            TN            TP         NH4-N
  Link                            kg            kg            kg            kg            kg
  ------------------------------------------------------------------------------------------
  WS02003066WSF200          1214.987      2375.396        29.112         2.431        14.925
  WS02006287WS02006284       662.639      1308.474        17.241         1.527         9.011
  WS02006284WS02006280       663.087      1309.171        17.288         1.533         9.040
  WS02006280WS02006229       663.156      1309.402        17.286         1.533         9.039
  WS02006229WS02006228      1199.751      2347.129        28.299         2.332        14.443
  WS02006256WS02006235       321.159       615.506         6.735         0.499         3.335
  WS02006253WS02006251       127.076       257.748         2.704         0.198         1.324
  WS02006252WS02006251       170.181       334.621         3.191         0.221         1.535
  WS02006251WS02006249       291.688       581.748         5.793         0.412         2.810
  WS02006249WS02006248       248.315       490.368         4.966         0.354         2.413
  WS02006248WS02006247       253.663       500.538         5.095         0.366         2.481
  WS02006247WS02006245       252.682       497.798         5.089         0.366         2.480
  WS02006245WS02006243       251.737       495.138         5.084         0.366         2.480
  WS02006243WS02006242       251.639       493.776         5.102         0.369         2.492
  WS02006242WS02006240       250.749       490.861         5.081         0.367         2.481
  WS02006240WS02006239       251.133       490.733         5.095         0.368         2.488
  WS02006239WS02006238       252.568       492.948         5.125         0.370         2.503
  WS02006238WS02006235       253.758       495.095         5.140         0.371         2.510
  WS02006235WS02006234       541.665      1047.896        11.150         0.813         5.478
  WS02006234WS02006232       544.724      1053.897        11.231         0.820         5.521
  WS02006232WS02006231       547.957      1060.423        11.312         0.827         5.563
  WS02006231WS02006230       551.828      1068.405        11.401         0.835         5.609
  WS02006230WS02006229       556.788      1078.527        11.512         0.845         5.665
  WS02006228WS02006109      1199.391      2346.468        28.282         2.330        14.433
  WS02006116WS02004401      1231.023      2406.372        29.449         2.456        15.093
  WS02006115WS02006116      1232.247      2408.723        29.479         2.459        15.109
  WS02006113WS02006111      1206.699      2358.300        29.025         2.424        14.899
  WS02006112WS02006115      1233.531      2411.140        29.522         2.463        15.133
  WS02006111WS02006112      1205.967      2356.719        29.007         2.422        14.890
  WS02006110WS02006113      1206.974      2358.628        29.043         2.426        14.910
  WS02006109WS02006110      1207.784      2359.876        29.096         2.432        14.942
  WS02004411WS02004412      1219.984      2384.965        29.251         2.443        15.000
  WS02004401WS02004402      1229.690      2403.860        29.408         2.452        15.071
  WS02004413WS02003067      1216.125      2377.621        29.134         2.432        14.936
  WS02004412WS02004413      1218.179      2381.491        29.205         2.439        14.976
  WS02004410WS02004411      1221.497      2387.884        29.287         2.446        15.019
  WS02004409WS02004410      1222.975      2390.718        29.325         2.450        15.039
  WS02004407WS02004409      1224.187      2393.053        29.351         2.452        15.052
  WS02004406WS02004407      1224.450      2393.548        29.352         2.451        15.051
  WS02004405WS02004406      1226.509      2397.359        29.431         2.460        15.096
  WS02004404WS02004405      1227.651      2399.681        29.428         2.457        15.090
  WS02004403WS02004404      1227.309      2399.358        29.341         2.446        15.034
  WS02004402WS02004403      1228.480      2401.567        29.376         2.449        15.054
  WS02004139WS02001211      1277.883      2218.777        85.911        10.157        52.018
  WS02004138WS02004139      1283.488      2228.421        86.283        10.200        52.243
  WS02003067WS02003066      1215.265      2375.923        29.120         2.431        14.930
  WS02001213WS02003059      1312.839      2273.216        89.632        10.628        54.361
  WS02001212WS02001213      1321.332      2287.629        90.249        10.702        54.738
  WS02001211WS02001212      1322.941      2290.300        90.376        10.717        54.816
  WS02003072WS02003073      2627.528      4805.685       128.886        14.335        75.649
  WS02003069WS02003072      2632.782      4814.786       129.248        14.378        75.869
  WS02003060WS02003069      2635.674      4820.157       129.356        14.389        75.930
  WS02003059WS02003060      1310.181      2268.604        89.471        10.609        54.265
  HS02004901HS02004770        31.243        62.189         0.612         0.047         0.291
  HS02004876HS02004881       101.414       206.329         2.154         0.154         1.046
  HS02004870HS02004876        77.888       158.595         1.700         0.122         0.826
  HS02004842HS02004848        14.996        29.644         0.314         0.022         0.147
  HS02004837HS02004842        19.709        37.152         0.788         0.082         0.444
  HS02004830HS02004837       101.805       187.054         5.288         0.600         3.141
  HS02004824HS02004830       102.660       188.502         5.363         0.610         3.188
  HS02004817HS02004824       158.466       303.818         6.497         0.682         3.738
  HS02004770HS02004777       119.651       241.823         2.495         0.175         1.169
  HS02004799HS02004480       374.826       742.453         8.578         0.702         4.269
  HS02004792HS02004799       343.088       676.951         8.002         0.666         3.998
  HS02004788HS02004792       180.017       356.945         4.686         0.402         2.399
  HS02004785HS02004788       121.030       244.026         2.637         0.193         1.258
  HS02004777HS02004785       120.348       242.945         2.574         0.185         1.219
  HS02004480HS02004478       464.818       922.690        10.233         0.827         5.069
  HS02004479HS02004480        93.771       186.476         1.955         0.161         0.984
  HS02004862HS02004870        60.204       121.271         1.340         0.100         0.653
  HS02004848HS02004852        26.761        53.672         0.548         0.038         0.256
  HS02004856HS02004862        41.868        85.060         0.850         0.058         0.403
  HS02004852HS02004856        26.785        53.715         0.548         0.038         0.257
  HS02004802HS02004478       198.961       387.629         7.078         0.709         3.984
  HS02004478WS02006287       662.724      1308.519        17.258         1.529         9.022
  HS02004817HS02004807       157.288       302.060         6.358         0.664         3.650
  HS02004807HS02004802       198.929       387.536         7.103         0.712         4.001
  YS02001759YS02001757       522.885      1018.714        10.080         0.717         4.913
  YS02001762YS02001759       388.339       746.766         7.770         0.555         3.806
  YS02001765YS02001762       390.017       751.489         7.814         0.559         3.830
  YS02001770YS02001767       398.886       772.642         7.903         0.560         3.862
  YS02001774YS02001770       877.298      1732.787        17.298         1.182         8.407
  YS02001779YS02001774       877.033      1732.444        17.363         1.193         8.453
  YS02001649YS02001757       844.474      1638.595        16.793         1.149         8.127
  YS02001767YS02001765       393.184       759.222         7.879         0.564         3.864
  YS02006561YS02001783      1602.146      3072.580        33.165         2.429        16.357
  YS02001783YS02001784      1602.113      3072.574        33.162         2.429        16.355
  YS02001784YS02001785      1609.585      3084.625        33.876         2.518        16.802
  YS02001788YS02001790      1610.322      3085.900        33.950         2.528        16.849
  YS02001790YS02001791      1611.411      3087.727        34.050         2.540        16.911
  YS02001791YS02001793      1611.327      3087.577        34.046         2.540        16.909
  YS02001910YS02001907       952.568      1850.695        20.382         1.456        10.140
  YS02001786YS02001788      1609.864      3085.132        33.906         2.522        16.821
  YS02001915YS02001910       952.000      1849.540        20.333         1.450        10.109
  YS02001918YS02001915       473.642       888.919        10.578         0.860         5.413
  YS02001923YS02001920       447.912       844.643         8.541         0.613         4.157
  YS02001926YS02001923       444.849       839.047         8.426         0.602         4.091
  YS02001929YS02001926       441.997       833.987         8.312         0.590         4.026
  YS02001920YS02001918       469.060       879.256        10.479         0.854         5.364
  YS02001629YS02163301       210.489       398.163         4.142         0.295         1.981
  YS02001619YS02001622       451.065       868.528         9.085         0.615         4.292
  YS02001622YS02001625       450.738       868.100         9.072         0.614         4.286
  YS02001625YS02001629       204.837       387.109         4.042         0.287         1.931
  YS02163301YS02001633       216.235       409.433         4.242         0.303         2.031
  YS02163601YS02164001       715.955      1349.594        13.900         1.022         6.717
  YS02164001YS02001641       716.632      1350.822        13.900         1.021         6.715
  YS02001641YS02001644       719.073      1355.239        13.936         1.023         6.731
  YS02001647YS02001649       953.217      1830.878        19.217         1.340         9.235
  YS02006553YS02006556       811.194      1518.251        17.557         1.319         8.785
  YS02006556YS02006558       811.918      1519.628        17.529         1.314         8.763
  YSB6556YSB1171              54.546       108.520         1.086         0.087         0.541
  YS02001907YS02006553       810.857      1517.580        17.599         1.326         8.814
  YS02006558YS02006561      1602.001      3072.271        33.163         2.429        16.356
  YS02001633YS02163601       716.471      1350.428        13.876         1.017         6.698
  YS02001644YS02001647       960.324      1845.067        19.326         1.348         9.286
  YS02001745YS02001748       597.885      1178.563        11.860         0.761         5.723
  YS02001748YS02001751       597.434      1177.838        11.871         0.763         5.732
  YS02001751YS02001754       596.763      1176.758        11.860         0.763         5.728
  YS02001754YS02001757       597.948      1178.656        12.029         0.786         5.837
  YS02001882YS02001884         4.442         8.044         0.082         0.006         0.040
  YS02001884YS02001887         8.573        15.762         0.158         0.012         0.077
  YS02001890YS02001895       827.380      1598.718        15.728         1.198         7.701
  YS02001895YS02001898       827.312      1598.712        15.722         1.198         7.698
  YS02001898YS02001901       827.143      1598.371        15.719         1.198         7.696
  YS02001901YS02001904       827.187      1598.490        15.737         1.200         7.709
  YS02001904YS02001907       827.627      1599.149        15.799         1.208         7.748
  YS02001887YS02001890      1076.000      2095.064        20.310         1.550         9.940
  YS02001652YS02001649       552.806      1068.275        11.048         0.806         5.216
  YS02001655YS02001652       553.239      1069.006        11.061         0.807         5.222
  YS02001658YS02001655       552.744      1068.249        10.975         0.795         5.166
  YS02001661YS02001658       553.106      1068.811        10.985         0.796         5.171
  YS02001664YS02001661       557.463      1075.190        11.103         0.804         5.225
  YSB1154YSB6556              54.072       107.779         1.038         0.081         0.511
  YSB1174YSB1171              37.704        75.534         0.747         0.059         0.369
  YSB1171HS02004479           93.613       186.166         1.960         0.162         0.989
  HS02004881HS02006253       113.800       232.055         2.392         0.170         1.162
  YS02001793JiankangQianchi      1611.084      3087.236        33.993         2.533        16.874
  YS02001757CaochengTiaoxuchi       670.541      1308.735        12.742         0.883         6.136
  WSF200WS02003060          1214.745      2374.943        29.112         2.431        14.926
  1                         2633.215      4813.798       129.716        14.444        76.180
  CC-Pump-1                  129.022       254.073         2.407         0.167         1.156
  CC-Pump-2                   40.652        79.551         0.768         0.053         0.370
  JK-Pump-1                  445.267       862.943         9.126         0.671         4.498
  JK-Pump-2                 1013.428      1964.160        20.747         1.523        10.223
  XR-Pump-1                  348.325       601.186        24.158         2.872        14.675
  XR-Pump-2                  328.597       569.526        22.296         2.640        13.513
  XR-Pump-3                  305.053       531.836        20.048         2.360        12.110
  XR-Pump-4                  305.053       531.836        20.048         2.360        12.110
  

  Analysis begun on:  Fri Jul 16 01:13:51 2021
  Analysis ended on:  Fri Jul 16 01:13:54 2021
  Total elapsed time: 00:00:03