
  EPA STORM WATER MANAGEMENT MODEL - VERSION 5.1 (Build 5.3.0.dev0)
  --------------------------------------------------------------

  WARNING 04: minimum elevation drop used for Conduit WS02004404WS02004405
  WARNING 03: negative offset ignored for Link YS02001904YS02001907
  
  *********************************************************
  NOTE: The summary statistics displayed in this report are
  based on results found at every computational time step,  
  not just on results from each reporting time step.
  *********************************************************
  
  ****************
  Analysis Options
  ****************
  Flow Units ............... LPS
  Process Models:
    Rainfall/Runoff ........ YES
    RDII ................... NO
    Snowmelt ............... NO
    Groundwater ............ NO
    Flow Routing ........... YES
    Ponding Allowed ........ NO
    Water Quality .......... YES
  Infiltration Method ...... HORTON
  Flow Routing Method ...... DYNWAVE
  Surcharge Method ......... EXTRAN
  Starting Date ............ 08/28/2015 08:00:00
  Ending Date .............. 08/28/2015 15:50:00
  Antecedent Dry Days ...... 8.0
  Report Time Step ......... 00:01:00
  Wet Time Step ............ 00:01:00
  Dry Time Step ............ 00:01:00
  Routing Time Step ........ 5.00 sec
  Variable Time Step ....... YES
  Maximum Trials ........... 8
  Number of Threads ........ 4
  Head Tolerance ........... 0.001500 m
  
  
  **************************        Volume         Depth
  Runoff Quantity Continuity     hectare-m            mm
  **************************     ---------       -------
  Total Precipitation ......        10.887        23.836
  Evaporation Loss .........         0.000         0.000
  Infiltration Loss ........         1.411         3.089
  Surface Runoff ...........         8.292        18.155
  Final Storage ............         1.186         2.596
  Continuity Error (%) .....        -0.016
  
  
  **************************           COD            SS            TN            TP         NH4-N
  Runoff Quality Continuity             kg            kg            kg            kg            kg
  **************************    ----------    ----------    ----------    ----------    ----------
  Initial Buildup ..........     41378.656     70582.865      1804.177       168.684      1032.807
  Surface Buildup ..........        41.425        91.431         2.568         0.227         1.442
  Wet Deposition ...........         0.000         0.000         0.000         0.000         0.000
  Sweeping Removal .........         0.000         0.000         0.000         0.000         0.000
  Infiltration Loss ........       164.554       320.127         3.263         0.236         1.574
  BMP Removal ..............         0.000         0.000         0.000         0.000         0.000
  Surface Runoff ...........      9366.500     18283.806       183.722        12.955        88.133
  Remaining Buildup ........     31885.964     52064.522      1619.692       155.715       944.511
  Continuity Error (%) .....         0.007         0.008         0.004         0.003         0.003
  
  
  **************************        Volume        Volume
  Flow Routing Continuity        hectare-m      10^6 ltr
  **************************     ---------     ---------
  Dry Weather Inflow .......         0.616         6.165
  Wet Weather Inflow .......         8.290        82.900
  Groundwater Inflow .......         0.000         0.000
  RDII Inflow ..............         0.000         0.000
  External Inflow ..........         0.102         1.024
  External Outflow .........         2.212        22.117
  Flooding Loss ............         6.319        63.188
  Evaporation Loss .........         0.000         0.000
  Exfiltration Loss ........         0.000         0.000
  Initial Stored Volume ....         0.076         0.761
  Final Stored Volume ......         0.661         6.606
  Continuity Error (%) .....        -1.170
  
  
  **************************           COD            SS            TN            TP         NH4-N
  Quality Routing Continuity            kg            kg            kg            kg            kg
  **************************    ----------    ----------    ----------    ----------    ----------
  Dry Weather Inflow .......      1541.201      2465.922       147.955        18.494        92.472
  Wet Weather Inflow .......      9365.127     18281.361       183.692        12.953        88.118
  Groundwater Inflow .......         0.000         0.000         0.000         0.000         0.000
  RDII Inflow ..............         0.000         0.000         0.000         0.000         0.000
  External Inflow ..........       183.418       293.469        17.608         2.201        11.005
  External Outflow .........      2782.670      5103.484       133.275        14.738        78.024
  Flooding Loss ............      7565.110     14605.304       187.861        16.073        97.701
  Exfiltration Loss ........         0.000         0.000         0.000         0.000         0.000
  Mass Reacted .............         0.000         0.000         0.000         0.000         0.000
  Initial Stored Mass ......         0.000         0.000         0.000         0.000         0.000
  Final Stored Mass ........       639.090      1163.908        24.823         2.545        14.101
  Continuity Error (%) .....         0.928         0.799         0.944         0.869         0.923
  
  
  *************************
  Highest Continuity Errors
  *************************
  Node YS02001884 (8.11%)
  Node HS02004842 (7.73%)
  Node JK-storage (-7.10%)
  Node HS02004817 (1.58%)
  Node YSB1171 (1.38%)
  
  
  ***************************
  Time-Step Critical Elements
  ***************************
  Link WS02006252WS02006251 (56.37%)
  Link WS02006280WS02006229 (16.29%)
  Link YS02001793JiankangQianchi (4.53%)
  Link WS02006238WS02006235 (4.28%)
  Link YS02006556YS02006558 (2.62%)
  
  
  ********************************
  Highest Flow Instability Indexes
  ********************************
  Link YS02163601YS02164001 (43)
  Link YS02163301YS02001633 (42)
  Link YS02001629YS02163301 (42)
  Link YS02001619YS02001622 (41)
  Link YS02164001YS02001641 (39)
  
  
  *************************
  Routing Time Step Summary
  *************************
  Minimum Time Step           :     0.50 sec
  Average Time Step           :     1.35 sec
  Maximum Time Step           :     5.00 sec
  Percent in Steady State     :    -0.00
  Average Iterations per Step :     4.18
  Percent Not Converging      :    15.86
  
  
  ***************************
  Subcatchment Runoff Summary
  ***************************
  
  ------------------------------------------------------------------------------------------------------------------------------
                            Total      Total      Total      Total     Imperv       Perv      Total       Total     Peak  Runoff
                           Precip      Runon       Evap      Infil     Runoff     Runoff     Runoff      Runoff   Runoff   Coeff
  Subcatchment                 mm         mm         mm         mm         mm         mm         mm    10^6 ltr      LPS
  ------------------------------------------------------------------------------------------------------------------------------
  sub0                      23.84       0.00       0.00       0.77      22.12       0.90      23.02        0.02     5.06   0.966
  sub1                      23.84       0.00       0.00       1.33      21.12       1.29      22.41        0.15    33.98   0.940
  sub2                      23.84       0.00       0.00       5.60      14.93       3.22      18.15        0.17    32.49   0.761
  sub3                      23.84       0.00       0.00       5.94      14.89       2.88      17.77        0.40    70.76   0.745
  sub4                      23.84       0.00       0.00       1.46      20.95       1.16      22.11        0.46    81.55   0.928
  sub5                      23.84       0.00       0.00       0.82      22.07       0.85      22.92        0.26    59.56   0.962
  sub7                      23.84       0.00       0.00       1.03      21.63       1.11      22.74        0.08    19.22   0.954
  sub8                      23.84       0.00       0.00       1.05      21.62       1.10      22.72        0.15    35.26   0.953
  sub9                      23.84       0.00       0.00       1.05      21.62       1.10      22.71        0.11    26.33   0.953
  sub10                     23.84       0.00       0.00       0.94      21.84       0.97      22.81        0.25    58.74   0.957
  sub11                     23.84       0.00       0.00       0.92      21.86       0.99      22.85        0.27    65.28   0.959
  sub12                     23.84       0.00       0.00       1.50      20.69       1.60      22.29        0.19    51.10   0.935
  sub14                     23.84       0.00       0.00       1.05      21.61       1.09      22.71        0.22    51.81   0.953
  sub15                     23.84       0.00       0.00       4.05      16.62       3.10      19.72        0.34    74.01   0.827
  sub16                     23.84       0.00       0.00       4.23      15.93       3.63      19.56        0.20    48.29   0.821
  sub17                     23.84       0.00       0.00       4.13      16.17       3.50      19.67        0.17    39.49   0.825
  sub22                     23.84       0.00       0.00       6.08      13.55       4.17      17.72        1.12   235.47   0.743
  sub23                     23.84       0.00       0.00       5.01      14.97       3.81      18.78        0.90   197.86   0.788
  sub60                     23.84       0.00       0.00       2.13      18.82       0.73      19.55        5.93   667.30   0.820
  sub61                     23.84       0.00       0.00       3.01      18.52       1.04      19.56        6.03   717.95   0.821
  sub62                     23.84       0.00       0.00       1.25      20.31       0.65      20.96        6.44   751.14   0.880
  sub63                     23.84       0.00       0.00       5.57      16.04       1.34      17.38        5.26   638.31   0.729
  sub64                     23.84       0.00       0.00       2.78      18.11       0.79      18.90        5.75   644.78   0.793
  sub65                     23.84       0.00       0.00       2.36      18.46       0.74      19.20        5.90   658.64   0.806
  sub66                     23.84       0.00       0.00       5.92      15.37       0.99      16.36        5.02   574.80   0.686
  sub67                     23.84       0.00       0.00       1.18      20.92       0.73      21.65        6.68   814.16   0.908
  sub68                     23.84       0.00       0.00       2.35      19.35       0.99      20.34        6.25   750.28   0.853
  sub69                     23.84       0.00       0.00       2.36      19.61       1.21      20.83        4.87   655.18   0.874
  sub70                     23.84      21.26       0.00       9.95      28.09       5.22      33.30        7.62   861.91   0.738
  sub71                     23.84       0.00       0.00       1.29      20.01       0.62      20.63        4.87   557.88   0.866
  sub72                     23.84       0.00       0.00       1.26      17.48       0.41      17.89        3.64   352.81   0.750
  1                         23.84      32.43       0.00       1.37      34.56      12.51      47.07       11.06  1042.57   0.837
  2                         23.84       0.00       0.00       3.02       5.81       5.77      11.58        4.63   438.27   0.486
  
  
  ****************************
  Subcatchment Washoff Summary
  ****************************
  
  ------------------------------------------------------------------------------------------
                                 COD            SS            TN            TP         NH4-N
  Subcatchment                    kg            kg            kg            kg            kg
  ------------------------------------------------------------------------------------------
  sub0                         5.447        10.648         0.101         0.009         0.050
  sub1                        23.688        48.042         0.463         0.033         0.225
  sub2                        16.966        34.031         0.358         0.025         0.167
  sub3                        41.902        83.507         0.867         0.061         0.406
  sub4                        55.504       114.752         1.120         0.071         0.542
  sub5                        53.600       106.723         1.016         0.079         0.498
  sub7                        11.854        24.343         0.233         0.016         0.114
  sub8                        17.650        37.231         0.360         0.022         0.174
  sub9                        15.191        31.538         0.304         0.020         0.147
  sub10                       44.044        88.979         0.851         0.062         0.416
  sub11                       42.563        86.978         0.834         0.059         0.406
  sub12                       37.050        74.157         0.712         0.055         0.347
  sub14                       32.601        66.963         0.643         0.044         0.313
  sub15                       47.434        94.407         0.941         0.071         0.448
  sub16                       30.857        61.246         0.608         0.047         0.290
  sub17                       28.315        55.641         0.547         0.044         0.262
  sub22                      161.087       316.749         3.138         0.242         1.488
  sub23                       88.506       179.789         1.886         0.128         0.879
  sub60                      597.605      1177.766        11.858         0.760         5.721
  sub61                      735.660      1436.196        13.939         0.989         6.759
  sub62                      737.985      1463.009        14.530         0.959         7.028
  sub63                      558.710      1076.727        11.142         0.807         5.242
  sub64                      776.597      1477.973        14.527         1.087         6.999
  sub65                      790.465      1509.997        14.865         1.095         7.170
  sub66                      450.962       868.123         9.087         0.615         4.293
  sub67                     1073.899      2091.719        20.029         1.513         9.761
  sub68                      789.681      1552.112        15.327         1.072         7.390
  sub69                      691.072      1362.692        13.304         0.964         6.425
  sub70                     1288.654      2534.730        26.762         1.929        12.763
  sub71                      488.493       980.368         9.974         0.604         4.804
  sub72                      441.504       833.180         8.283         0.587         4.008
  1                         1052.298      2081.048        22.042         1.588        10.427
  2                          118.381       219.864         3.138         0.193         1.360
  ------------------------------------------------------------------------------------------
  System                   11346.226     22181.229       223.788        15.848       107.320
  
  
  ******************
  Node Depth Summary
  ******************
  
  ---------------------------------------------------------------------------------
                                 Average  Maximum  Maximum  Time of Max    Reported
                                   Depth    Depth      HGL   Occurrence   Max Depth
  Node                 Type       Meters   Meters   Meters  days hr:min      Meters
  ---------------------------------------------------------------------------------
  WS02001211           JUNCTION     0.78     0.86     5.69     0  01:43        0.86
  WS02001212           JUNCTION     0.49     0.59     5.65     0  01:42        0.59
  WS02001213           JUNCTION     0.74     0.87     5.63     0  01:42        0.87
  WS02003069           JUNCTION     0.54     0.73     5.32     0  01:43        0.73
  WS02003072           JUNCTION     0.60     0.78     5.15     0  01:41        0.78
  WS02003073           JUNCTION     0.36     0.49     4.55     0  01:42        0.49
  WS02003060           JUNCTION     0.48     0.65     5.58     0  01:42        0.65
  WS02003066           JUNCTION     0.26     0.40     5.95     0  01:36        0.40
  WS02003059           JUNCTION     0.79     0.92     5.61     0  01:43        0.92
  WS02003067           JUNCTION     0.61     0.84     6.16     0  01:35        0.84
  WS02004401           JUNCTION     0.77     1.48     7.48     0  01:32        1.29
  WS02004402           JUNCTION     0.80     1.43     7.39     0  01:32        1.26
  WS02004403           JUNCTION     0.81     1.39     7.32     0  01:32        1.23
  WS02004404           JUNCTION     0.88     1.41     7.26     0  01:32        1.27
  WS02004406           JUNCTION     0.87     1.26     7.09     0  01:32        1.18
  WS02004409           JUNCTION     0.57     1.04     6.81     0  01:35        1.03
  WS02004410           JUNCTION     0.59     1.01     6.73     0  01:35        0.99
  WS02004411           JUNCTION     0.59     0.97     6.65     0  01:35        0.97
  WS02004412           JUNCTION     0.60     0.94     6.58     0  01:35        0.93
  WS02004413           JUNCTION     0.75     1.05     6.52     0  01:35        1.04
  WS02004405           JUNCTION     0.87     1.37     7.22     0  01:32        1.24
  WS02006109           JUNCTION     0.89     1.91     8.52     0  01:33        1.87
  WS02006110           JUNCTION     0.85     1.79     8.37     0  01:32        1.63
  WS02006111           JUNCTION     0.31     1.29     7.99     0  01:32        1.00
  WS02006112           JUNCTION     0.97     1.91     7.79     0  01:32        1.65
  WS02006113           JUNCTION     0.42     1.43     8.32     0  01:32        1.07
  WS02006115           JUNCTION     0.68     1.54     7.68     0  01:32        1.29
  WS02006116           JUNCTION     0.76     1.55     7.59     0  01:32        1.32
  WS02006230           JUNCTION     0.93     2.13     8.88     0  01:33        2.11
  WS02006231           JUNCTION     0.67     1.74     8.86     0  01:33        1.72
  WS02006232           JUNCTION     0.81     1.81     8.85     0  01:33        1.79
  WS02006234           JUNCTION     0.74     1.68     8.84     0  01:34        1.66
  WS02006235           JUNCTION     0.78     1.67     8.84     0  01:34        1.65
  WS02006238           JUNCTION     0.80     1.69     8.83     0  01:34        1.66
  WS02006240           JUNCTION     0.69     1.50     8.80     0  01:34        1.48
  WS02006242           JUNCTION     0.74     1.50     8.77     0  01:34        1.48
  WS02006243           JUNCTION     0.62     1.33     8.75     0  01:34        1.31
  WS02006245           JUNCTION     0.58     1.24     8.73     0  01:33        1.22
  WS02006247           JUNCTION     0.59     1.21     8.71     0  01:34        1.20
  WS02006248           JUNCTION     0.53     1.10     8.69     0  01:32        1.10
  WS02006249           JUNCTION     0.54     1.09     8.69     0  01:32        1.09
  WS02006239           JUNCTION     0.75     1.60     8.81     0  01:34        1.58
  WS02006251           JUNCTION     0.51     1.48     9.15     0  01:32        1.31
  WS02006252           JUNCTION     0.30     0.97     9.21     0  07:05        0.81
  WS02006253           JUNCTION     0.54     1.95     9.59     0  01:32        1.37
  WS02006256           JUNCTION     1.91     2.35     9.28     0  00:00        2.35
  WS02004138           JUNCTION     0.19     0.20     7.45     0  00:00        0.19
  WS02004139           JUNCTION     0.73     0.80     5.71     0  01:42        0.80
  WS02004407           JUNCTION     0.25     0.42     6.73     0  01:35        0.42
  WS02006228           JUNCTION     0.93     2.11     8.76     0  01:33        2.08
  WS02006229           JUNCTION     0.92     2.20     8.90     0  01:33        2.17
  WS02006280           JUNCTION     0.09     0.51     8.78     0  01:33        0.50
  WS02006284           JUNCTION     0.40     0.72     9.12     0  01:34        0.72
  WS02006287           JUNCTION     0.13     0.46     9.42     0  01:34        0.46
  WSF200               JUNCTION     0.25     0.45     5.69     0  01:36        0.45
  HS02004901           JUNCTION     0.15     0.43    10.25     0  01:33        0.43
  HS02004881           JUNCTION     0.01     0.09     9.12     0  01:32        0.06
  HS02004876           JUNCTION     0.06     0.19     9.22     0  01:32        0.19
  HS02004870           JUNCTION     0.02     0.11     9.40     0  01:35        0.11
  HS02004862           JUNCTION     0.03     0.13     9.51     0  01:35        0.13
  HS02004856           JUNCTION     0.09     0.17     9.59     0  01:35        0.17
  HS02004852           JUNCTION     0.02     0.10     9.61     0  01:35        0.10
  HS02004848           JUNCTION     0.02     0.08     9.68     0  01:36        0.08
  HS02004842           JUNCTION     0.34     0.41     9.68     0  01:35        0.41
  HS02004837           JUNCTION     0.04     0.10     9.68     0  01:35        0.10
  HS02004830           JUNCTION     0.05     0.15     9.62     0  01:35        0.15
  HS02004824           JUNCTION     0.04     0.20     9.61     0  01:35        0.20
  HS02004817           JUNCTION     0.47     0.77     9.62     0  01:34        0.77
  HS02004807           JUNCTION     0.15     0.44     9.61     0  01:35        0.44
  HS02004802           JUNCTION     0.19     0.47     9.60     0  01:34        0.47
  HS02004799           JUNCTION     0.16     0.55     9.76     0  01:33        0.55
  HS02004792           JUNCTION     0.05     0.27     9.79     0  01:33        0.27
  HS02004788           JUNCTION     0.04     0.19    10.09     0  01:34        0.19
  HS02004785           JUNCTION     0.07     0.29    10.19     0  01:33        0.29
  HS02004777           JUNCTION     0.17     0.44    10.24     0  01:33        0.44
  HS02004770           JUNCTION     0.15     0.42    10.25     0  01:33        0.42
  HS02004480           JUNCTION     0.12     0.46     9.70     0  01:33        0.46
  HS02004479           JUNCTION     0.15     0.49     9.70     0  01:34        0.49
  HS02004478           JUNCTION     0.09     0.35     9.58     0  01:34        0.35
  YS02001745           JUNCTION     0.82     1.24     8.76     0  01:29        1.04
  YS02001748           JUNCTION     1.23     1.85     8.93     0  01:28        1.46
  YS02001751           JUNCTION     1.41     1.71     8.59     0  01:29        1.63
  YS02001754           JUNCTION     1.66     1.89     8.50     0  01:29        1.89
  YS02001762           JUNCTION     1.86     2.08     8.48     0  02:43        2.07
  YS02001765           JUNCTION     1.81     2.03     8.48     0  02:44        2.02
  YS02001767           JUNCTION     1.77     1.98     8.47     0  02:45        1.97
  YS02001770           JUNCTION     1.77     1.95     8.44     0  02:06        1.95
  YS02001774           JUNCTION     1.83     2.00     8.42     0  02:44        1.99
  YS02001779           JUNCTION     1.57     1.68     8.37     0  01:27        1.68
  YS02001882           JUNCTION     0.80     1.72     8.44     0  01:32        1.64
  YS02001884           JUNCTION     0.89     1.80     8.42     0  01:32        1.74
  YS02001759           JUNCTION     1.89     2.12     8.49     0  02:43        2.11
  YS02001887           JUNCTION     0.97     1.85     8.38     0  01:32        1.82
  YS02001890           JUNCTION     0.99     1.81     8.32     0  01:32        1.81
  YS02001898           JUNCTION     0.76     1.57     8.31     0  01:33        1.56
  YS02001901           JUNCTION     0.88     1.68     8.29     0  01:33        1.67
  YS02001904           JUNCTION     0.85     1.64     8.27     0  01:33        1.63
  YS02001907           JUNCTION     1.18     1.96     8.25     0  01:33        1.96
  YS02001910           JUNCTION     0.98     1.97     8.48     0  01:33        1.92
  YS02001915           JUNCTION     0.78     1.91     8.63     0  01:33        1.83
  YS02001918           JUNCTION     0.51     1.81     8.88     0  01:33        1.70
  YS02001619           JUNCTION     1.35     1.61     8.54     0  01:27        1.50
  YS02001629           JUNCTION     1.71     1.85     8.40     0  01:27        1.85
  YS02001641           JUNCTION     1.80     1.96     8.40     0  01:29        1.95
  YS02001644           JUNCTION     1.80     1.92     8.35     0  01:29        1.92
  YS02001652           JUNCTION     1.67     2.16     8.76     0  01:35        1.95
  YS02001655           JUNCTION     1.43     2.20     9.05     0  01:35        1.88
  YS02001920           JUNCTION     0.61     2.10     9.11     0  01:33        1.77
  YS02001923           JUNCTION     0.42     2.01     9.27     0  01:33        1.51
  YS02001926           JUNCTION     0.44     1.90     9.35     0  01:33        1.33
  YS02001929           JUNCTION     0.28     1.78     9.47     0  01:33        1.10
  YS02001658           JUNCTION     1.16     2.12     9.26     0  01:35        1.82
  YS02001661           JUNCTION     0.92     2.46     9.86     0  01:35        1.72
  YS02001664           JUNCTION     0.43     0.69     8.62     0  01:30        0.69
  YS02001622           JUNCTION     1.37     1.62     8.52     0  01:27        1.51
  YS02001633           JUNCTION     1.80     1.98     8.43     0  01:29        1.97
  YS02001649           JUNCTION     1.86     2.05     8.44     0  01:29        2.05
  YS02001757           JUNCTION     1.99     2.21     8.47     0  02:18        2.21
  YS02001895           JUNCTION     0.76     1.57     8.31     0  01:34        1.56
  YS02001625           JUNCTION     1.66     1.78     8.38     0  01:27        1.78
  YS02163301           JUNCTION     1.74     1.90     8.42     0  01:29        1.89
  YS02163601           JUNCTION     1.85     2.03     8.43     0  01:29        2.02
  YS02164001           JUNCTION     1.78     1.97     8.42     0  01:29        1.95
  YS02001647           JUNCTION     1.64     1.80     8.41     0  04:31        1.79
  YSB1154              JUNCTION     0.29     0.65     9.70     0  01:34        0.65
  YSB6556              JUNCTION     0.18     0.53     9.70     0  01:33        0.53
  YSB1174              JUNCTION     0.24     0.59     9.70     0  01:33        0.59
  YSB1171              JUNCTION     0.44     0.80     9.70     0  01:34        0.80
  YS02006553           JUNCTION     1.18     1.97     8.26     0  01:53        1.97
  YS02006561           JUNCTION     0.48     1.30     7.96     0  01:32        1.09
  YS02006556           JUNCTION     1.15     1.94     8.25     0  01:44        1.94
  YS02006558           JUNCTION     1.19     2.00     8.26     0  01:32        1.98
  YS02001783           JUNCTION     0.75     1.69     7.83     0  01:32        1.48
  YS02001784           JUNCTION     0.75     1.65     7.72     0  01:32        1.42
  YS02001786           JUNCTION     0.66     1.60     7.63     0  01:32        1.27
  YS02001788           JUNCTION     0.58     1.83     7.81     0  01:32        1.13
  YS02001790           JUNCTION     0.71     1.96     7.60     0  01:31        1.29
  YS02001791           JUNCTION     0.66     2.01     7.48     0  05:05        1.28
  YS02001793           JUNCTION     0.92     2.07     6.90     0  05:05        1.80
  WSC                  OUTFALL      0.36     0.49     1.16     0  01:43        0.49
  JK-storage           STORAGE      3.41     5.80     6.60     0  01:32        5.80
  CC-storage           STORAGE      1.24     1.48     8.48     0  02:19        1.48
  XR-storage           STORAGE      7.23     7.72     5.72     0  01:47        7.72
  
  
  *******************
  Node Inflow Summary
  *******************
  
  -------------------------------------------------------------------------------------------------
                                  Maximum  Maximum                  Lateral       Total        Flow
                                  Lateral    Total  Time of Max      Inflow      Inflow     Balance
                                   Inflow   Inflow   Occurrence      Volume      Volume       Error
  Node                 Type           LPS      LPS  days hr:min    10^6 ltr    10^6 ltr     Percent
  -------------------------------------------------------------------------------------------------
  WS02001211           JUNCTION      7.35   391.71     0  03:16       0.207        10.4       0.385
  WS02001212           JUNCTION      0.00   396.03     0  03:16           0        10.4       0.231
  WS02001213           JUNCTION      0.00   399.75     0  03:16           0        10.4       0.271
  WS02003069           JUNCTION      0.32  1378.22     0  01:43     0.00902        22.2       0.150
  WS02003072           JUNCTION      0.00  1378.46     0  01:43           0        22.2       0.181
  WS02003073           JUNCTION      1.82  1380.19     0  01:44      0.0514        22.2       0.206
  WS02003060           JUNCTION     16.53  1378.39     0  01:42       0.466        22.2       0.141
  WS02003066           JUNCTION      0.00   998.29     0  01:35           0        11.5       0.038
  WS02003059           JUNCTION      0.00   404.57     0  03:16           0        10.3       0.380
  WS02003067           JUNCTION      0.00   994.68     0  01:35           0        11.5       0.078
  WS02004401           JUNCTION      0.00  1016.04     0  01:34           0        11.7       0.173
  WS02004402           JUNCTION      0.00  1015.96     0  01:34           0        11.7       0.166
  WS02004403           JUNCTION      0.00  1016.69     0  01:34           0        11.6       0.150
  WS02004404           JUNCTION      0.16  1017.69     0  01:34     0.00457        11.6       0.114
  WS02004406           JUNCTION      0.00  1018.83     0  01:34           0        11.6       0.273
  WS02004409           JUNCTION      0.00  1016.00     0  01:34           0        11.6       0.131
  WS02004410           JUNCTION      0.00  1006.61     0  01:35           0        11.5       0.150
  WS02004411           JUNCTION      0.00   991.82     0  01:36           0        11.5       0.154
  WS02004412           JUNCTION      0.00   992.37     0  01:36           0        11.5       0.168
  WS02004413           JUNCTION      0.00   993.93     0  01:35           0        11.5       0.252
  WS02004405           JUNCTION      0.04  1018.35     0  01:34     0.00107        11.6       0.170
  WS02006109           JUNCTION      1.23   977.86     0  01:34      0.0347        11.6       0.133
  WS02006110           JUNCTION      0.00   977.86     0  01:34           0        11.6       0.159
  WS02006111           JUNCTION      0.00   977.90     0  01:34           0        11.6       0.028
  WS02006112           JUNCTION     39.49  1016.51     0  01:34       0.169        11.7       0.221
  WS02006113           JUNCTION      0.00   977.89     0  01:34           0        11.6       0.081
  WS02006115           JUNCTION      0.00  1016.03     0  01:34           0        11.7       0.158
  WS02006116           JUNCTION      0.00  1015.85     0  01:34           0        11.7       0.103
  WS02006230           JUNCTION     10.28   541.91     0  07:05        0.29         7.2       0.165
  WS02006231           JUNCTION      0.00   530.67     0  07:05           0         6.9       0.122
  WS02006232           JUNCTION      0.00   530.08     0  07:05           0        6.89       0.259
  WS02006234           JUNCTION      0.00   528.54     0  07:05           0        6.87       0.085
  WS02006235           JUNCTION      0.00   526.82     0  07:05           0        6.99       0.162
  WS02006238           JUNCTION      0.00   330.12     0  07:06           0        3.24       0.114
  WS02006240           JUNCTION      0.00   335.01     0  07:02           0        3.22       0.276
  WS02006242           JUNCTION      0.00   357.30     0  07:02           0        3.22       0.378
  WS02006243           JUNCTION      0.00   372.47     0  07:02           0        3.21       0.048
  WS02006245           JUNCTION      0.00   379.75     0  07:02           0        3.21       0.285
  WS02006247           JUNCTION      0.00   385.69     0  07:03           0        3.21       0.074
  WS02006248           JUNCTION      0.00   390.89     0  07:03           0        3.25      -0.051
  WS02006249           JUNCTION      0.00   519.97     0  03:00           0        3.94       0.094
  WS02006239           JUNCTION      0.00   329.80     0  07:06           0        3.23       0.132
  WS02006251           JUNCTION      0.08   519.85     0  03:00     0.00217        3.97      -0.048
  WS02006252           JUNCTION      0.00   400.00     0  02:50           0           3       0.000
  WS02006253           JUNCTION      5.06   276.69     0  01:31      0.0186       0.959      -0.144
  WS02006256           JUNCTION      0.00   983.00     0  00:00           0        14.3       0.001
  WS02004138           JUNCTION      0.00   380.00     0  00:00           0        10.3       0.064
  WS02004139           JUNCTION      0.32   396.51     0  00:00     0.00905        10.3       0.439
  WS02004407           JUNCTION      0.00  1019.67     0  01:34           0        11.6       0.059
  WS02006228           JUNCTION      0.00   976.59     0  01:34           0        11.6       0.118
  WS02006229           JUNCTION      0.00  1054.81     0  01:32           0        11.7       0.119
  WS02006280           JUNCTION      0.00   937.56     0  01:34           0        4.56       0.012
  WS02006284           JUNCTION      0.10   934.65     0  01:35      0.0027        4.56       0.019
  WS02006287           JUNCTION      0.00   934.65     0  01:35           0        4.56       0.019
  WSF200               JUNCTION      0.00   999.24     0  01:36           0        11.5       0.034
  HS02004901           JUNCTION     48.29    48.29     0  01:31       0.205       0.205       0.867
  HS02004881           JUNCTION     19.22   196.20     0  01:33      0.0766       0.897       0.077
  HS02004876           JUNCTION     33.98   176.89     0  01:34       0.149       0.821       0.068
  HS02004870           JUNCTION     35.26   143.34     0  01:35       0.145       0.672       0.017
  HS02004862           JUNCTION     32.69   109.55     0  01:35       0.175       0.527       0.033
  HS02004856           JUNCTION     26.33    76.92     0  01:35       0.109       0.354       0.407
  HS02004852           JUNCTION      0.00    51.63     0  01:36           0       0.245       0.025
  HS02004848           JUNCTION     70.76    70.76     0  01:38         0.4         0.4       0.013
  HS02004842           JUNCTION      0.00    21.86     0  01:49           0       0.168       8.372
  HS02004837           JUNCTION     65.09    82.02     0  01:35       0.431       0.586       0.139
  HS02004830           JUNCTION      0.15    82.12     0  01:35     0.00423       0.576       0.215
  HS02004824           JUNCTION     81.60   164.06     0  01:39       0.463        1.04       0.052
  HS02004817           JUNCTION      0.60   166.62     0  01:39      0.0169        1.05       1.606
  HS02004807           JUNCTION     65.28   225.51     0  01:36       0.265         1.3       0.342
  HS02004802           JUNCTION      0.00   226.45     0  01:37           0         1.3       0.298
  HS02004799           JUNCTION     51.81   605.47     0  01:33       0.216        2.82       0.117
  HS02004792           JUNCTION    235.75   554.35     0  01:33        1.13        2.61       0.015
  HS02004788           JUNCTION     75.68   319.93     0  01:33       0.386        1.48       0.026
  HS02004785           JUNCTION      0.15   244.47     0  01:33     0.00423         1.1       0.047
  HS02004777           JUNCTION      0.03   244.66     0  01:32    0.000846         1.1       0.479
  HS02004770           JUNCTION    197.86   245.55     0  01:32       0.896         1.1       0.279
  HS02004480           JUNCTION      0.00   713.05     0  01:33           0        3.27       0.024
  HS02004479           JUNCTION      0.00   107.71     0  01:33           0       0.464       0.161
  HS02004478           JUNCTION      0.00   934.58     0  01:35           0        4.56       0.007
  YS02001745           JUNCTION    667.30   667.30     0  03:01        5.93        5.93       0.197
  YS02001748           JUNCTION      0.04   667.51     0  03:01     0.00127        5.92       0.379
  YS02001751           JUNCTION      0.01   667.81     0  03:01     0.00031         5.9       0.406
  YS02001754           JUNCTION      0.26   668.69     0  03:01     0.00733        5.88       0.412
  YS02001762           JUNCTION      0.00   370.23     0  01:35           0        3.07       0.693
  YS02001765           JUNCTION      0.00   369.96     0  01:35           0        3.07       0.797
  YS02001767           JUNCTION      0.54   369.89     0  01:35      0.0151        3.09       1.164
  YS02001770           JUNCTION    751.30  1060.15     0  03:01        6.45        8.33       0.375
  YS02001774           JUNCTION      0.00   852.02     0  02:44           0        6.65       0.376
  YS02001779           JUNCTION      0.01   851.72     0  02:46    0.000141        6.62       0.233
  YS02001882           JUNCTION      0.00    35.86     0  01:30           0      0.0422       6.133
  YS02001884           JUNCTION      0.00    62.42     0  01:29           0      0.0824       8.820
  YS02001759           JUNCTION    717.99   898.67     0  01:41        6.03        7.19       0.316
  YS02001887           JUNCTION    814.61   815.54     0  01:58        6.69        6.73       0.130
  YS02001890           JUNCTION      0.00   815.85     0  01:57           0        6.67       0.143
  YS02001898           JUNCTION      0.00   598.44     0  01:32           0        5.39       0.056
  YS02001901           JUNCTION      0.00   603.23     0  01:32           0        5.39       0.135
  YS02001904           JUNCTION      0.00   604.49     0  01:32           0        5.38       0.118
  YS02001907           JUNCTION      0.00  1427.99     0  03:01           0          14       0.178
  YS02001910           JUNCTION      0.00   911.31     0  03:01           0         8.6       0.142
  YS02001915           JUNCTION    557.90   911.12     0  03:01        4.87        8.65       0.076
  YS02001918           JUNCTION      0.00   432.44     0  01:32           0        3.81       0.048
  YS02001619           JUNCTION    574.80   574.80     0  03:01        5.02        5.02       0.239
  YS02001629           JUNCTION      0.00   279.76     0  01:26           0        2.09       1.366
  YS02001641           JUNCTION      0.00   456.22     0  01:28           0        6.14       0.342
  YS02001644           JUNCTION    644.82  1924.42     0  03:01        5.75        20.1       0.133
  YS02001652           JUNCTION      0.00   639.60     0  03:01           0        5.22       0.432
  YS02001655           JUNCTION      0.15   639.40     0  03:01     0.00434        5.24       0.484
  YS02001920           JUNCTION      2.87   402.24     0  01:33      0.0809        3.79       0.082
  YS02001923           JUNCTION      0.04   401.24     0  01:33     0.00106        3.69       0.045
  YS02001926           JUNCTION      0.05   463.69     0  01:33     0.00147        3.66       0.087
  YS02001929           JUNCTION    352.81   352.81     0  03:01        3.64        3.65       0.006
  YS02001658           JUNCTION      0.00   638.98     0  03:01           0        5.26       0.459
  YS02001661           JUNCTION      0.00   800.06     0  01:41           0        5.64      -0.070
  YS02001664           JUNCTION    638.31   638.31     0  03:01        5.26        5.64       0.113
  YS02001622           JUNCTION      0.00   574.87     0  03:01           0        5.01       0.631
  YS02001633           JUNCTION    658.84   658.84     0  03:01        5.91        7.08       0.451
  YS02001649           JUNCTION      0.00  1354.52     0  02:44           0        11.6       0.319
  YS02001757           JUNCTION      0.00  2182.20     0  01:41           0        12.9       0.716
  YS02001895           JUNCTION      0.00   594.51     0  01:32           0        5.39       0.121
  YS02001625           JUNCTION      0.00   801.50     0  03:01           0        5.86       0.683
  YS02163301           JUNCTION      0.00   279.14     0  01:26           0        2.09       1.158
  YS02163601           JUNCTION      0.11   454.30     0  01:28      0.0031        6.14       0.491
  YS02164001           JUNCTION      0.00   454.53     0  01:28           0        6.13       0.325
  YS02001647           JUNCTION      0.00   846.70     0  02:44           0        8.97       0.316
  YSB1154              JUNCTION     59.56    59.56     0  01:33        0.26        0.26       0.556
  YSB6556              JUNCTION      0.00    59.44     0  01:33           0       0.261       0.489
  YSB1174              JUNCTION     51.10    51.10     0  01:30       0.195       0.195       0.658
  YSB1171              JUNCTION      0.00   108.28     0  01:32           0       0.462       1.394
  YS02006553           JUNCTION      0.00   730.94     0  04:02           0        7.59       0.210
  YS02006561           JUNCTION      0.00  1060.99     0  01:32           0        13.8       0.004
  YS02006556           JUNCTION      0.00   730.99     0  04:02           0        7.59       0.146
  YS02006558           JUNCTION    751.16  1059.69     0  01:32        6.28        13.8       0.036
  YS02001783           JUNCTION      0.00  1023.67     0  01:31           0        13.8       0.018
  YS02001784           JUNCTION      1.06  1024.80     0  01:31      0.0299        13.8       0.030
  YS02001786           JUNCTION      0.06  1024.64     0  01:31     0.00159        13.8       0.029
  YS02001788           JUNCTION      0.07  1003.97     0  01:31       0.002        13.8       0.019
  YS02001790           JUNCTION      0.15   984.12     0  01:50     0.00437        13.8       0.015
  YS02001791           JUNCTION      0.00   984.09     0  01:58           0        13.8       0.009
  YS02001793           JUNCTION      0.00   984.37     0  02:46           0        13.8      -0.013
  WSC                  OUTFALL       0.00  1380.77     0  01:43           0        22.1       0.000
  JK-storage           STORAGE       0.00  1020.29     0  01:30           0          14      -6.630
  CC-storage           STORAGE       0.00  2182.61     0  01:41           0        7.05       0.928
  XR-storage           STORAGE    1680.85  1680.85     0  03:01        21.3        21.9      -0.004
  
  
  **********************
  Node Surcharge Summary
  **********************
  
  Surcharging occurs when water rises above the top of the highest conduit.
  ---------------------------------------------------------------------
                                               Max. Height   Min. Depth
                                   Hours       Above Crown    Below Rim
  Node                 Type      Surcharged         Meters       Meters
  ---------------------------------------------------------------------
  WS02004401           JUNCTION        1.78          0.484        1.176
  WS02004402           JUNCTION        1.89          0.434        1.306
  WS02004403           JUNCTION        1.89          0.386        1.644
  WS02004404           JUNCTION        2.12          0.408        2.372
  WS02004406           JUNCTION        2.07          0.256        2.194
  WS02004409           JUNCTION        0.13          0.043        2.317
  WS02004410           JUNCTION        0.01          0.008        2.532
  WS02004413           JUNCTION        0.86          0.048        2.152
  WS02004405           JUNCTION        2.10          0.365        2.435
  WS02006109           JUNCTION        4.00          1.086        0.734
  WS02006110           JUNCTION        2.68          0.878        0.972
  WS02006111           JUNCTION        0.65          0.476        1.394
  WS02006112           JUNCTION        2.85          0.911        0.769
  WS02006113           JUNCTION        0.71          0.628        1.302
  WS02006115           JUNCTION        1.29          0.533        1.717
  WS02006116           JUNCTION        1.35          0.486        1.804
  WS02006230           JUNCTION        2.57          1.052        0.518
  WS02006231           JUNCTION        2.82          1.030        0.500
  WS02006232           JUNCTION        4.03          1.108        0.372
  WS02006234           JUNCTION        3.57          0.962        0.278
  WS02006235           JUNCTION        3.85          0.963        0.327
  WS02006238           JUNCTION        3.89          0.969        0.461
  WS02006240           JUNCTION        3.30          0.793        0.597
  WS02006242           JUNCTION        3.43          0.770        0.050
  WS02006243           JUNCTION        2.96          0.617        0.153
  WS02006245           JUNCTION        2.57          0.532        0.318
  WS02006247           JUNCTION        2.53          0.504        0.256
  WS02006248           JUNCTION        2.21          0.380        0.000
  WS02006249           JUNCTION        2.25          0.390        0.000
  WS02006239           JUNCTION        3.55          0.864        0.426
  WS02006251           JUNCTION        1.36          0.449        0.731
  WS02006252           JUNCTION        2.10          0.571        0.529
  WS02006253           JUNCTION        1.61          0.907        1.573
  WS02006256           JUNCTION        6.80          2.050        0.000
  WS02006228           JUNCTION        3.97          1.278        0.922
  WS02006229           JUNCTION        0.01          0.022        1.048
  HS02004817           JUNCTION        0.46          0.068        1.672
  YS02001745           JUNCTION        1.08          0.240        1.110
  YS02001748           JUNCTION        6.35          0.773        0.417
  YS02001751           JUNCTION        6.36          0.714        0.486
  YS02001754           JUNCTION        6.38          0.844        0.306
  YS02001762           JUNCTION        6.40          1.081        0.069
  YS02001765           JUNCTION        6.40          1.027        0.073
  YS02001767           JUNCTION        6.39          0.977        0.053
  YS02001770           JUNCTION        6.39          0.920        0.000
  YS02001774           JUNCTION        6.40          1.002        0.048
  YS02001779           JUNCTION        6.37          0.680        0.000
  YS02001882           JUNCTION        2.55          0.721        0.109
  YS02001884           JUNCTION        2.56          0.743        0.127
  YS02001759           JUNCTION        6.41          1.122        0.088
  YS02001887           JUNCTION        2.62          0.795        0.155
  YS02001890           JUNCTION        2.64          0.760        0.000
  YS02001898           JUNCTION        2.52          0.541        0.199
  YS02001901           JUNCTION        2.60          0.683        0.187
  YS02001904           JUNCTION        2.58          0.645        0.205
  YS02001907           JUNCTION        3.16          0.950        0.000
  YS02001910           JUNCTION        2.68          0.970        0.130
  YS02001915           JUNCTION        2.54          0.914        0.086
  YS02001918           JUNCTION        2.41          0.810        0.000
  YS02001619           JUNCTION        6.37          0.610        0.000
  YS02001629           JUNCTION        6.37          0.470        0.000
  YS02001641           JUNCTION        6.40          0.962        0.138
  YS02001644           JUNCTION        6.40          0.920        0.000
  YS02001652           JUNCTION        6.38          1.130        0.000
  YS02001655           JUNCTION        6.37          1.200        0.000
  YS02001920           JUNCTION        2.43          1.103        0.037
  YS02001923           JUNCTION        0.01          0.800        0.020
  YS02001926           JUNCTION        0.01          0.900        0.000
  YS02001929           JUNCTION        0.01          0.780        0.000
  YS02001658           JUNCTION        6.35          1.116        0.184
  YS02001661           JUNCTION        1.50          1.390        0.000
  YS02001622           JUNCTION        6.37          0.620        0.000
  YS02001633           JUNCTION        6.40          0.960        0.100
  YS02001649           JUNCTION        6.40          1.050        0.000
  YS02001757           JUNCTION        6.42          1.210        0.000
  YS02001895           JUNCTION        2.53          0.567        0.183
  YS02001625           JUNCTION        6.38          0.780        0.000
  YS02163301           JUNCTION        6.39          0.901        0.129
  YS02163601           JUNCTION        6.40          1.035        0.045
  YS02164001           JUNCTION        6.40          0.965        0.135
  YS02001647           JUNCTION        6.38          0.799        0.101
  YS02006553           JUNCTION        3.22          0.973        0.217
  YS02006561           JUNCTION        2.44          0.499        0.651
  YS02006556           JUNCTION        2.84          0.902        0.448
  YS02006558           JUNCTION        2.82          0.896        0.504
  YS02001783           JUNCTION        2.64          0.886        0.714
  YS02001784           JUNCTION        2.61          0.854        0.636
  YS02001786           JUNCTION        2.53          0.801        0.629
  YS02001788           JUNCTION        2.47          1.030        0.450
  YS02001790           JUNCTION        3.25          1.157        0.000
  YS02001791           JUNCTION        3.34          1.212        0.708
  YS02001793           JUNCTION        3.59          1.066        1.534
  
  
  *********************
  Node Flooding Summary
  *********************
  
  Flooding refers to all water that overflows a node, whether it ponds or not.
  --------------------------------------------------------------------------
                                                             Total   Maximum
                                 Maximum   Time of Max       Flood    Ponded
                        Hours       Rate    Occurrence      Volume     Depth
  Node                 Flooded       LPS   days hr:min    10^6 ltr    Meters
  --------------------------------------------------------------------------
  WS02006248              0.43    151.85      0  01:38       0.139     0.000
  WS02006249              1.54    380.45      0  03:00       0.785     0.000
  WS02006256              4.93    978.40      0  00:00      10.439     0.000
  YS02001770              1.14    208.92      0  03:01       0.458     0.000
  YS02001779              4.58    851.45      0  02:46       6.606     0.000
  YS02001890              1.74    298.72      0  01:56       1.275     0.000
  YS02001907              2.28   1197.53      0  03:01       6.358     0.000
  YS02001918              0.01     89.36      0  01:33       0.001     0.000
  YS02001619              0.01    104.17      0  01:27       0.000     0.000
  YS02001629              0.01    240.31      0  01:27       0.002     0.000
  YS02001644              5.97   1924.38      0  03:01      19.287     0.000
  YS02001652              0.01      5.78      0  01:35       0.000     0.000
  YS02001655              0.01     12.84      0  01:35       0.000     0.000
  YS02001926              0.01     22.18      0  01:33       0.000     0.000
  YS02001929              0.01    244.70      0  01:33       0.001     0.000
  YS02001661              0.01    114.41      0  01:35       0.000     0.000
  YS02001622              0.01     85.79      0  01:27       0.000     0.000
  YS02001649              1.29    507.77      0  02:44       1.754     0.000
  YS02001757              0.25    120.34      0  02:25       0.055     0.000
  YS02001625              3.01    801.49      0  03:01       4.633     0.000
  YS02001790              0.01    155.99      0  05:06       0.000     0.000
  JK-storage              0.66    695.53      0  01:32       0.656     0.000
  XR-storage              6.04   1300.70      0  03:01      10.740     0.000
  
  
  **********************
  Storage Volume Summary
  **********************
  
  --------------------------------------------------------------------------------------------------
                         Average     Avg  Evap Exfil       Maximum     Max    Time of Max    Maximum
                          Volume    Pcnt  Pcnt  Pcnt        Volume    Pcnt     Occurrence    Outflow
  Storage Unit           1000 m3    Full  Loss  Loss       1000 m3    Full    days hr:min        LPS
  --------------------------------------------------------------------------------------------------
  JK-storage               0.171      59     0     0         0.291     100       0  01:32     983.00
  CC-storage               3.450      22     0     0         4.133      26       0  02:19     400.00
  XR-storage               0.868      94     0     0         0.926     100       0  01:47     380.00
  
  
  ***********************
  Outfall Loading Summary
  ***********************
  
  ---------------------------------------------------------------------------------------------------------------------------------
                         Flow       Avg       Max       Total         Total         Total         Total         Total         Total
                         Freq      Flow      Flow      Volume           COD            SS            TN            TP         NH4-N
  Outfall Node           Pcnt       LPS       LPS    10^6 ltr            kg            kg            kg            kg            kg
  ---------------------------------------------------------------------------------------------------------------------------------
  WSC                   99.98    834.95   1380.77      22.117      2782.770      5103.652       133.282        14.739        78.028
  ---------------------------------------------------------------------------------------------------------------------------------
  System                99.98    834.95   1380.77      22.117      2782.770      5103.652       133.282        14.739        78.028
  
  
  ********************
  Link Flow Summary
  ********************
  
  -----------------------------------------------------------------------------
                                 Maximum  Time of Max   Maximum    Max/    Max/
                                  |Flow|   Occurrence   |Veloc|    Full    Full
  Link                 Type          LPS  days hr:min     m/sec    Flow   Depth
  -----------------------------------------------------------------------------
  WS02003066WSF200     CONDUIT    999.24     0  01:36      3.05    0.17    0.33
  WS02006287WS02006284 CONDUIT    934.56     0  01:35      2.63    0.43    0.46
  WS02006284WS02006280 CONDUIT    937.56     0  01:34      2.86    0.39    0.44
  WS02006280WS02006229 CONDUIT    963.19     0  01:34      4.53    0.21    0.75
  WS02006229WS02006228 CONDUIT    976.59     0  01:34      1.94    3.23    1.00
  WS02006256WS02006235 CONDUIT    288.60     0  00:00      4.23    3.05    1.00
  WS02006253WS02006251 CONDUIT    273.97     0  01:32      0.83    0.82    1.00
  WS02006252WS02006251 CONDUIT    406.47     0  03:50      3.23    1.49    1.00
  WS02006251WS02006249 CONDUIT    519.97     0  03:00      1.35    1.50    1.00
  WS02006249WS02006248 CONDUIT    390.89     0  07:03      1.19    2.14    1.00
  WS02006248WS02006247 CONDUIT    385.69     0  07:03      1.17    0.84    1.00
  WS02006247WS02006245 CONDUIT    379.75     0  07:02      1.15    3.01    1.00
  WS02006245WS02006243 CONDUIT    372.47     0  07:02      1.20    1.10    1.00
  WS02006243WS02006242 CONDUIT    357.30     0  07:02      1.08    0.76    1.00
  WS02006242WS02006240 CONDUIT    335.01     0  07:02      1.01    1.33    1.00
  WS02006240WS02006239 CONDUIT    329.80     0  07:06      1.11    1.04    1.00
  WS02006239WS02006238 CONDUIT    330.12     0  07:06      0.92    1.06    1.00
  WS02006238WS02006235 CONDUIT    332.32     0  07:06      1.46    0.74    1.00
  WS02006235WS02006234 CONDUIT    528.54     0  07:05      1.37    5.58    1.00
  WS02006234WS02006232 CONDUIT    530.08     0  07:05      1.39    1.07    1.00
  WS02006232WS02006231 CONDUIT    530.67     0  07:05      1.38    1.11    1.00
  WS02006231WS02006230 CONDUIT    531.63     0  07:05      1.55    8.06    1.00
  WS02006230WS02006229 CONDUIT    535.97     0  07:06      1.39   11.93    1.00
  WS02006228WS02006109 CONDUIT    976.63     0  01:34      1.94    4.27    1.00
  WS02006116WS02004401 CONDUIT   1016.04     0  01:34      1.29    1.40    1.00
  WS02006115WS02006116 CONDUIT   1015.85     0  01:34      1.29    1.30    1.00
  WS02006113WS02006111 CONDUIT    977.90     0  01:34      2.65    1.17    1.00
  WS02006112WS02006115 CONDUIT   1016.03     0  01:34      1.29    0.60    1.00
  WS02006111WS02006112 CONDUIT    977.90     0  01:34      1.95    0.46    1.00
  WS02006110WS02006113 CONDUIT    977.89     0  01:34      1.95    0.89    1.00
  WS02006109WS02006110 CONDUIT    977.86     0  01:34      1.95    1.88    1.00
  WS02004411WS02004412 CONDUIT    992.37     0  01:36      1.29    1.41    0.96
  WS02004401WS02004402 CONDUIT   1015.96     0  01:34      1.29    1.22    1.00
  WS02004413WS02003067 CONDUIT    994.68     0  01:35      1.62    0.43    0.73
  WS02004412WS02004413 CONDUIT    993.93     0  01:35      1.28    0.67    0.97
  WS02004410WS02004411 CONDUIT    991.82     0  01:36      1.27    1.35    0.99
  WS02004409WS02004410 CONDUIT   1006.61     0  01:35      1.29    1.30    1.00
  WS02004407WS02004409 CONDUIT   1016.00     0  01:34      1.87    0.36    0.71
  WS02004406WS02004407 CONDUIT   1019.67     0  01:34      1.72    0.46    0.71
  WS02004405WS02004406 CONDUIT   1018.83     0  01:34      1.30    2.01    1.00
  WS02004404WS02004405 CONDUIT   1018.32     0  01:34      1.30    9.98    1.00
  WS02004403WS02004404 CONDUIT   1017.53     0  01:34      1.30    0.74    1.00
  WS02004402WS02004403 CONDUIT   1016.69     0  01:34      1.29    1.46    1.00
  WS02004139WS02001211 CONDUIT    384.37     0  03:16      0.90    0.49    0.65
  WS02004138WS02004139 CONDUIT    396.19     0  00:00      3.65    0.08    0.47
  WS02003067WS02003066 CONDUIT    998.29     0  01:35      1.71    0.32    0.51
  WS02001213WS02003059 CONDUIT    404.57     0  03:16      0.88    0.67    0.88
  WS02001212WS02001213 CONDUIT    399.75     0  03:16      1.32    0.62    0.57
  WS02001211WS02001212 CONDUIT    396.03     0  03:16      0.78    0.30    0.72
  WS02003072WS02003073 CONDUIT   1378.37     0  01:44      1.99    2.98    0.59
  WS02003069WS02003072 CONDUIT   1378.46     0  01:43      1.84    0.66    0.63
  WS02003060WS02003069 CONDUIT   1377.90     0  01:43      2.04    0.54    0.58
  WS02003059WS02003060 CONDUIT    410.73     0  03:16      0.95    0.27    0.79
  HS02004901HS02004770 CONDUIT     47.75     0  01:32      0.11    0.18    0.61
  HS02004876HS02004881 CONDUIT    177.42     0  01:33      1.41    1.89    0.20
  HS02004870HS02004876 CONDUIT    143.30     0  01:35      0.95    0.10    0.22
  HS02004842HS02004848 CONDUIT     21.86     0  01:49      0.09    0.01    0.35
  HS02004837HS02004842 CONDUIT     22.38     0  01:49      0.42    0.01    0.37
  HS02004830HS02004837 CONDUIT     81.97     0  01:35      0.70    0.08    0.18
  HS02004824HS02004830 CONDUIT     82.88     0  01:37      0.63    0.11    0.25
  HS02004817HS02004824 CONDUIT    166.02     0  01:39      0.37    0.07    0.64
  HS02004770HS02004777 CONDUIT    244.63     0  01:32      0.57    0.45    0.62
  HS02004799HS02004480 CONDUIT    605.42     0  01:33      1.21    0.76    0.71
  HS02004792HS02004799 CONDUIT    554.25     0  01:33      1.36    0.34    0.58
  HS02004788HS02004792 CONDUIT    319.85     0  01:34      1.40    0.21    0.33
  HS02004785HS02004788 CONDUIT    244.45     0  01:33      1.02    1.84    0.34
  HS02004777HS02004785 CONDUIT    244.32     0  01:33      0.67    0.30    0.52
  HS02004480HS02004478 CONDUIT    712.97     0  01:33      1.74    3.00    0.59
  HS02004479HS02004480 CONDUIT    107.66     0  01:33      0.45    0.10    0.68
  HS02004862HS02004870 CONDUIT    109.56     0  01:36      0.90    0.12    0.17
  HS02004848HS02004852 CONDUIT     51.63     0  01:36      0.58    0.06    0.13
  HS02004856HS02004862 CONDUIT     76.86     0  01:35      0.67    0.08    0.16
  HS02004852HS02004856 CONDUIT     51.73     0  01:36      0.39    0.06    0.19
  HS02004802HS02004478 CONDUIT    227.65     0  01:38      0.57    0.20    0.58
  HS02004478WS02006287 CONDUIT    934.65     0  01:35      2.37    0.26    0.44
  HS02004817HS02004807 CONDUIT    166.70     0  01:39      0.30    0.10    0.81
  HS02004807HS02004802 CONDUIT    226.45     0  01:37      0.51    0.43    0.64
  YS02001759YS02001757 CONDUIT    898.89     0  01:41      1.14    0.64    1.00
  YS02001762YS02001759 CONDUIT    370.56     0  01:35      0.47    0.43    1.00
  YS02001765YS02001762 CONDUIT    370.23     0  01:35      0.47    0.35    1.00
  YS02001770YS02001767 CONDUIT    369.35     0  01:35      0.50    1.46    1.00
  YS02001774YS02001770 CONDUIT    852.02     0  02:44      1.08    0.54    1.00
  YS02001779YS02001774 CONDUIT    851.72     0  02:46      1.08    0.43    1.00
  YS02001649YS02001757 CONDUIT    891.01     0  01:40      1.13    0.54    1.00
  YS02001767YS02001765 CONDUIT    369.96     0  01:35      0.48    0.47    1.00
  YS02006561YS02001783 CONDUIT   1023.67     0  01:31      2.27    0.53    1.00
  YS02001783YS02001784 CONDUIT   1023.74     0  01:31      2.04    1.41    1.00
  YS02001784YS02001785 CONDUIT   1024.58     0  01:31      2.07    2.38    1.00
  YS02001788YS02001790 CONDUIT    983.97     0  01:50      2.45    0.73    1.00
  YS02001790YS02001791 CONDUIT    984.09     0  01:58      2.98    1.07    1.00
  YS02001791YS02001793 CONDUIT    984.37     0  02:46      5.81    0.42    1.00
  YS02001910YS02001907 CONDUIT    911.60     0  03:01      1.16    0.51    1.00
  YS02001786YS02001788 CONDUIT   1003.90     0  01:31      2.31    1.93    1.00
  YS02001915YS02001910 CONDUIT    911.31     0  03:01      1.16    0.45    1.00
  YS02001918YS02001915 CONDUIT    432.44     0  01:32      0.57    0.24    1.00
  YS02001923YS02001920 CONDUIT    401.21     0  01:33      0.91    0.18    1.00
  YS02001926YS02001923 CONDUIT    463.64     0  01:33      1.00    0.66    1.00
  YS02001929YS02001926 CONDUIT    352.45     0  03:01      1.07    0.17    1.00
  YS02001920YS02001918 CONDUIT    401.55     0  01:34      0.85    0.39    1.00
  YS02001629YS02163301 CONDUIT    279.76     0  01:26      0.36    0.34    1.00
  YS02001619YS02001622 CONDUIT    574.87     0  03:01      0.86    0.85    1.00
  YS02001622YS02001625 CONDUIT    575.17     0  03:01      0.73    0.31    1.00
  YS02001625YS02001629 CONDUIT    260.10     0  01:26      0.40    0.12    1.00
  YS02163301YS02001633 CONDUIT    279.14     0  01:26      0.36    0.26    1.00
  YS02163601YS02164001 CONDUIT    454.53     0  01:28      0.58    0.40    1.00
  YS02164001YS02001641 CONDUIT    456.22     0  01:28      0.58    0.62    1.00
  YS02001641YS02001644 CONDUIT    457.69     0  01:28      0.58    1.48    1.00
  YS02001647YS02001649 CONDUIT    846.70     0  02:44      1.08    0.45    1.00
  YS02006553YS02006556 CONDUIT    730.99     0  04:02      0.93    0.63    1.00
  YS02006556YS02006558 CONDUIT    731.90     0  04:02      0.93    0.58    1.00
  YSB6556YSB1171       CONDUIT     59.53     0  01:34      0.17    0.06    0.88
  YS02001907YS02006553 CONDUIT    730.94     0  04:02      0.81    0.86    1.00
  YS02006558YS02006561 CONDUIT   1060.99     0  01:32      3.76    2.35    1.00
  YS02001633YS02163601 CONDUIT    454.19     0  01:28      0.58    0.48    1.00
  YS02001644YS02001647 CONDUIT    846.70     0  02:44      1.08    0.50    1.00
  YS02001745YS02001748 CONDUIT    667.46     0  03:01      1.86    0.26    1.00
  YS02001748YS02001751 CONDUIT    667.80     0  03:01      1.39    0.34    1.00
  YS02001751YS02001754 CONDUIT    668.43     0  03:01      1.15    0.32    1.00
  YS02001754YS02001757 CONDUIT    669.09     0  03:01      0.85    0.27    1.00
  YS02001882YS02001884 CONDUIT     35.86     0  01:30      0.22    0.04    1.00
  YS02001884YS02001887 CONDUIT     62.42     0  01:29      0.16    0.08    1.00
  YS02001890YS02001895 CONDUIT    594.51     0  01:32      0.76    0.28    1.00
  YS02001895YS02001898 CONDUIT    598.44     0  01:32      0.76    1.04    1.00
  YS02001898YS02001901 CONDUIT    603.23     0  01:32      0.77    0.39    1.00
  YS02001901YS02001904 CONDUIT    604.49     0  01:32      0.77    0.94    1.00
  YS02001904YS02001907 CONDUIT    605.14     0  01:32      0.77    0.21    1.00
  YS02001887YS02001890 CONDUIT    815.85     0  01:57      1.04    1.40    1.00
  YS02001652YS02001649 CONDUIT    639.70     0  03:01      0.84    0.32    1.00
  YS02001655YS02001652 CONDUIT    639.60     0  03:01      1.25    0.31    1.00
  YS02001658YS02001655 CONDUIT    639.24     0  03:01      1.61    0.27    1.00
  YS02001661YS02001658 CONDUIT    638.98     0  03:01      1.99    0.25    1.00
  YS02001664YS02001661 CONDUIT    800.06     0  01:41      1.90    0.25    0.85
  YSB1154YSB6556       CONDUIT     59.44     0  01:33      0.17    0.11    0.84
  YSB1174YSB1171       CONDUIT     50.32     0  01:30      0.14    0.08    0.92
  YSB1171HS02004479    CONDUIT    107.71     0  01:33      0.54    0.07    0.78
  HS02004881HS02006253 CONDUIT    270.49     0  01:32      2.77    0.05    0.56
  YS02001793JiankangQianchi CONDUIT   1020.29     0  01:30     16.61    0.08    1.00
  YS02001757CaochengTiaoxuchi CONDUIT   2182.61     0  01:41      3.80    0.96    1.00
  WSF200WS02003060     CONDUIT   1003.32     0  01:36      2.06    0.22    0.46
  1                    CONDUIT   1380.77     0  01:43      3.62    0.48    0.49
  CC-Pump-1            PUMP       200.00     0  02:50              1.00
  CC-Pump-2            PUMP       200.00     0  02:50              1.00
  JK-Pump-1            PUMP       300.00     0  00:00              1.00
  JK-Pump-2            PUMP       683.00     0  00:00              1.00
  XR-Pump-1            PUMP        95.00     0  00:00              1.00
  XR-Pump-2            PUMP        95.00     0  00:00              1.00
  XR-Pump-3            PUMP        95.00     0  00:00              1.00
  XR-Pump-4            PUMP        95.00     0  00:00              1.00
  
  
  ***************************
  Flow Classification Summary
  ***************************
  
  -------------------------------------------------------------------------------------
                      Adjusted    ---------- Fraction of Time in Flow Class ---------- 
                       /Actual         Up    Down  Sub   Sup   Up    Down  Norm  Inlet 
  Conduit               Length    Dry  Dry   Dry   Crit  Crit  Crit  Crit  Ltd   Ctrl  
  -------------------------------------------------------------------------------------
  WS02003066WSF200        1.00   0.02  0.05  0.00  0.00  0.93  0.00  0.00  0.43  0.00
  WS02006287WS02006284    1.00   0.03  0.01  0.00  0.59  0.37  0.00  0.00  0.61  0.00
  WS02006284WS02006280    1.00   0.04  0.00  0.00  0.00  0.00  0.00  0.96  0.00  0.00
  WS02006280WS02006229    1.00   0.04  0.00  0.00  0.06  0.07  0.00  0.84  0.02  0.00
  WS02006229WS02006228    1.00   0.00  0.00  0.00  1.00  0.00  0.00  0.00  0.00  0.00
  WS02006256WS02006235    1.00   0.00  0.00  0.00  1.00  0.00  0.00  0.00  0.00  0.00
  WS02006253WS02006251    1.00   0.02  0.02  0.00  0.96  0.00  0.01  0.00  0.00  0.00
  WS02006252WS02006251    1.00   0.08  0.00  0.00  0.20  0.00  0.72  0.00  0.00  0.00
  WS02006251WS02006249    1.00   0.00  0.00  0.00  1.00  0.00  0.00  0.00  0.22  0.00
  WS02006249WS02006248    1.00   0.00  0.01  0.00  0.90  0.00  0.09  0.00  0.00  0.00
  WS02006248WS02006247    1.00   0.01  0.00  0.00  0.97  0.00  0.00  0.02  0.08  0.00
  WS02006247WS02006245    1.00   0.01  0.00  0.00  0.95  0.00  0.00  0.04  0.00  0.00
  WS02006245WS02006243    1.00   0.00  0.00  0.00  0.93  0.00  0.00  0.06  0.01  0.00
  WS02006243WS02006242    1.00   0.00  0.00  0.00  0.98  0.00  0.00  0.01  0.21  0.00
  WS02006242WS02006240    1.00   0.00  0.00  0.00  0.98  0.00  0.02  0.00  0.00  0.00
  WS02006240WS02006239    1.00   0.00  0.00  0.00  0.92  0.00  0.00  0.08  0.02  0.00
  WS02006239WS02006238    1.00   0.00  0.00  0.00  1.00  0.00  0.00  0.00  0.13  0.00
  WS02006238WS02006235    1.00   0.00  0.00  0.00  1.00  0.00  0.00  0.00  0.00  0.00
  WS02006235WS02006234    1.00   0.00  0.00  0.00  0.96  0.00  0.04  0.00  0.00  0.00
  WS02006234WS02006232    1.00   0.00  0.00  0.00  1.00  0.00  0.00  0.00  0.06  0.00
  WS02006232WS02006231    1.00   0.00  0.00  0.00  1.00  0.00  0.00  0.00  0.00  0.00
  WS02006231WS02006230    1.00   0.00  0.00  0.00  0.72  0.00  0.28  0.00  0.00  0.00
  WS02006230WS02006229    1.00   0.00  0.00  0.00  1.00  0.00  0.00  0.00  0.01  0.00
  WS02006228WS02006109    1.00   0.00  0.00  0.00  1.00  0.00  0.00  0.00  0.00  0.00
  WS02006116WS02004401    1.00   0.01  0.00  0.00  0.99  0.00  0.00  0.00  0.01  0.00
  WS02006115WS02006116    1.00   0.01  0.00  0.00  0.97  0.00  0.00  0.02  0.01  0.00
  WS02006113WS02006111    1.00   0.01  0.00  0.00  0.14  0.85  0.00  0.00  0.13  0.00
  WS02006112WS02006115    1.00   0.01  0.00  0.00  0.99  0.00  0.00  0.00  0.00  0.00
  WS02006111WS02006112    1.00   0.01  0.00  0.00  0.99  0.00  0.00  0.00  0.71  0.00
  WS02006110WS02006113    1.00   0.00  0.00  0.00  0.99  0.00  0.00  0.00  0.00  0.00
  WS02006109WS02006110    1.00   0.00  0.00  0.00  0.99  0.00  0.00  0.00  0.00  0.00
  WS02004411WS02004412    1.00   0.06  0.00  0.00  0.94  0.00  0.00  0.00  0.00  0.00
  WS02004401WS02004402    1.00   0.01  0.00  0.00  0.99  0.00  0.00  0.00  0.01  0.00
  WS02004413WS02003067    1.00   0.06  0.01  0.00  0.00  0.00  0.93  0.00  0.00  0.00
  WS02004412WS02004413    1.00   0.06  0.00  0.00  0.94  0.00  0.00  0.00  0.00  0.00
  WS02004410WS02004411    1.00   0.05  0.00  0.00  0.94  0.00  0.00  0.00  0.00  0.00
  WS02004409WS02004410    1.00   0.05  0.00  0.00  0.95  0.00  0.00  0.00  0.00  0.00
  WS02004407WS02004409    1.00   0.05  0.00  0.00  0.93  0.01  0.00  0.00  0.80  0.00
  WS02004406WS02004407    1.00   0.00  0.05  0.00  0.95  0.00  0.00  0.00  0.00  0.00
  WS02004405WS02004406    1.00   0.00  0.00  0.00  1.00  0.00  0.00  0.00  0.02  0.00
  WS02004404WS02004405    1.00   0.00  0.00  0.00  1.00  0.00  0.00  0.00  0.00  0.00
  WS02004403WS02004404    1.00   0.00  0.01  0.00  0.99  0.00  0.00  0.00  0.02  0.00
  WS02004402WS02004403    1.00   0.01  0.00  0.00  0.99  0.00  0.00  0.00  0.00  0.00
  WS02004139WS02001211    1.00   0.00  0.00  0.00  1.00  0.00  0.00  0.00  0.00  0.00
  WS02004138WS02004139    1.00   0.00  0.00  0.00  1.00  0.00  0.00  0.00  1.00  0.00
  WS02003067WS02003066    1.00   0.07  0.00  0.00  0.93  0.00  0.00  0.00  0.00  0.00
  WS02001213WS02003059    1.00   0.00  0.00  0.00  1.00  0.00  0.00  0.00  0.00  0.00
  WS02001212WS02001213    1.00   0.00  0.00  0.00  0.92  0.00  0.07  0.00  0.00  0.00
  WS02001211WS02001212    1.00   0.00  0.00  0.00  1.00  0.00  0.00  0.00  0.00  0.00
  WS02003072WS02003073    1.00   0.00  0.00  0.00  0.00  0.00  0.00  1.00  0.00  0.00
  WS02003069WS02003072    1.00   0.00  0.00  0.00  1.00  0.00  0.00  0.00  0.08  0.00
  WS02003060WS02003069    1.00   0.00  0.00  0.00  0.99  0.01  0.00  0.00  0.06  0.00
  WS02003059WS02003060    1.00   0.00  0.00  0.00  1.00  0.00  0.00  0.00  0.00  0.00
  HS02004901HS02004770    1.00   0.04  0.00  0.00  0.96  0.00  0.00  0.00  0.00  0.00
  HS02004876HS02004881    1.00   0.01  0.00  0.00  0.78  0.21  0.00  0.00  0.00  0.00
  HS02004870HS02004876    1.00   0.00  0.00  0.00  0.99  0.00  0.00  0.00  0.95  0.00
  HS02004842HS02004848    1.00   0.00  0.04  0.00  0.96  0.00  0.00  0.00  0.53  0.00
  HS02004837HS02004842    1.00   0.00  0.00  0.00  1.00  0.00  0.00  0.00  0.11  0.00
  HS02004830HS02004837    1.00   0.00  0.00  0.00  1.00  0.00  0.00  0.00  0.99  0.00
  HS02004824HS02004830    1.00   0.00  0.00  0.00  1.00  0.00  0.00  0.00  0.03  0.00
  HS02004817HS02004824    1.00   0.00  0.00  0.00  1.00  0.00  0.00  0.00  0.86  0.00
  HS02004770HS02004777    1.00   0.00  0.04  0.00  0.96  0.00  0.00  0.00  0.01  0.00
  HS02004799HS02004480    1.00   0.00  0.01  0.00  0.96  0.00  0.03  0.00  0.00  0.00
  HS02004792HS02004799    1.00   0.00  0.00  0.00  1.00  0.00  0.00  0.00  0.98  0.00
  HS02004788HS02004792    1.00   0.00  0.00  0.00  1.00  0.00  0.00  0.00  0.98  0.00
  HS02004785HS02004788    1.00   0.00  0.00  0.00  1.00  0.00  0.00  0.00  0.00  0.00
  HS02004777HS02004785    1.00   0.00  0.00  0.00  1.00  0.00  0.00  0.00  0.10  0.00
  HS02004480HS02004478    1.00   0.04  0.00  0.00  0.65  0.00  0.00  0.31  0.00  0.00
  HS02004479HS02004480    1.00   0.01  0.00  0.00  0.99  0.00  0.00  0.00  0.10  0.00
  HS02004862HS02004870    1.00   0.00  0.00  0.00  1.00  0.00  0.00  0.00  0.02  0.00
  HS02004848HS02004852    1.00   0.04  0.00  0.00  0.96  0.00  0.00  0.00  0.83  0.00
  HS02004856HS02004862    1.00   0.00  0.04  0.00  0.96  0.00  0.00  0.00  0.85  0.00
  HS02004852HS02004856    1.00   0.04  0.00  0.00  0.96  0.00  0.00  0.00  0.69  0.00
  HS02004802HS02004478    1.00   0.04  0.00  0.00  0.96  0.00  0.00  0.00  0.01  0.00
  HS02004478WS02006287    1.00   0.04  0.00  0.00  0.70  0.26  0.00  0.00  0.58  0.00
  HS02004817HS02004807    1.00   0.00  0.04  0.00  0.96  0.00  0.00  0.00  0.01  0.00
  HS02004807HS02004802    1.00   0.04  0.00  0.00  0.96  0.00  0.00  0.00  0.00  0.00
  YS02001759YS02001757    1.00   0.00  0.00  0.00  1.00  0.00  0.00  0.00  0.15  0.00
  YS02001762YS02001759    1.00   0.00  0.00  0.00  1.00  0.00  0.00  0.00  0.01  0.00
  YS02001765YS02001762    1.00   0.00  0.00  0.00  1.00  0.00  0.00  0.00  0.13  0.00
  YS02001770YS02001767    1.00   0.00  0.00  0.00  1.00  0.00  0.00  0.00  0.00  0.00
  YS02001774YS02001770    1.00   0.00  0.04  0.00  0.96  0.00  0.00  0.00  0.01  0.00
  YS02001779YS02001774    1.00   0.00  0.00  0.00  1.00  0.00  0.00  0.00  0.15  0.00
  YS02001649YS02001757    1.00   0.00  0.00  0.00  1.00  0.00  0.00  0.00  0.14  0.00
  YS02001767YS02001765    1.00   0.00  0.00  0.00  1.00  0.00  0.00  0.00  0.00  0.00
  YS02006561YS02001783    1.00   0.05  0.00  0.00  0.52  0.43  0.00  0.00  0.35  0.00
  YS02001783YS02001784    1.00   0.00  0.05  0.00  0.95  0.00  0.00  0.00  0.00  0.00
  YS02001784YS02001785    1.00   0.00  0.00  0.00  1.00  0.00  0.00  0.00  0.15  0.00
  YS02001788YS02001790    1.00   0.00  0.00  0.00  0.53  0.47  0.00  0.00  0.29  0.00
  YS02001790YS02001791    1.00   0.00  0.00  0.00  0.50  0.50  0.00  0.00  0.34  0.00
  YS02001791YS02001793    1.00   0.00  0.00  0.00  0.52  0.48  0.00  0.00  0.02  0.00
  YS02001910YS02001907    1.00   0.00  0.00  0.00  0.99  0.00  0.00  0.01  0.11  0.00
  YS02001786YS02001788    1.00   0.00  0.00  0.00  0.52  0.48  0.00  0.00  0.00  0.00
  YS02001915YS02001910    1.00   0.00  0.00  0.00  0.99  0.01  0.00  0.00  0.12  0.00
  YS02001918YS02001915    1.00   0.00  0.00  0.00  0.99  0.00  0.00  0.00  0.43  0.00
  YS02001923YS02001920    1.00   0.00  0.00  0.00  1.00  0.00  0.00  0.00  0.65  0.00
  YS02001926YS02001923    1.00   0.00  0.02  0.00  0.31  0.00  0.66  0.00  0.00  0.00
  YS02001929YS02001926    1.00   0.00  0.04  0.00  0.96  0.00  0.00  0.00  0.55  0.00
  YS02001920YS02001918    1.00   0.00  0.00  0.00  1.00  0.00  0.00  0.00  0.00  0.00
  YS02001629YS02163301    1.00   0.04  0.00  0.00  0.96  0.00  0.00  0.00  0.00  0.00
  YS02001619YS02001622    1.00   0.04  0.00  0.00  0.96  0.00  0.00  0.00  0.00  0.00
  YS02001622YS02001625    1.00   0.04  0.00  0.00  0.96  0.00  0.00  0.00  0.02  0.00
  YS02001625YS02001629    1.00   0.04  0.01  0.00  0.94  0.00  0.01  0.00  0.00  0.00
  YS02163301YS02001633    1.00   0.00  0.04  0.00  0.96  0.00  0.00  0.00  0.00  0.00
  YS02163601YS02164001    1.00   0.00  0.02  0.00  0.98  0.00  0.00  0.00  0.00  0.00
  YS02164001YS02001641    1.00   0.00  0.02  0.00  0.98  0.00  0.00  0.00  0.05  0.00
  YS02001641YS02001644    1.00   0.00  0.00  0.00  1.00  0.00  0.00  0.00  0.00  0.00
  YS02001647YS02001649    1.00   0.00  0.04  0.00  0.96  0.00  0.00  0.00  0.01  0.00
  YS02006553YS02006556    1.00   0.01  0.00  0.00  0.99  0.00  0.00  0.00  0.03  0.00
  YS02006556YS02006558    1.00   0.00  0.00  0.00  1.00  0.00  0.00  0.00  0.00  0.00
  YSB6556YSB1171          1.00   0.01  0.02  0.00  0.96  0.00  0.00  0.00  0.00  0.00
  YS02001907YS02006553    1.00   0.00  0.01  0.00  0.99  0.00  0.00  0.00  0.00  0.00
  YS02006558YS02006561    1.00   0.05  0.00  0.00  0.31  0.64  0.00  0.00  0.35  0.00
  YS02001633YS02163601    1.00   0.00  0.00  0.00  1.00  0.00  0.00  0.00  0.14  0.00
  YS02001644YS02001647    1.00   0.00  0.04  0.00  0.96  0.00  0.00  0.00  0.00  0.00
  YS02001745YS02001748    1.00   0.00  0.00  0.00  0.93  0.00  0.00  0.06  0.00  0.00
  YS02001748YS02001751    1.00   0.00  0.00  0.00  0.98  0.02  0.00  0.00  0.13  0.00
  YS02001751YS02001754    1.00   0.00  0.00  0.00  0.95  0.00  0.00  0.05  0.01  0.00
  YS02001754YS02001757    1.00   0.00  0.00  0.00  1.00  0.00  0.00  0.00  0.15  0.00
  YS02001882YS02001884    1.00   0.04  0.00  0.00  0.96  0.00  0.00  0.00  0.00  0.00
  YS02001884YS02001887    1.00   0.02  0.01  0.00  0.97  0.00  0.00  0.00  0.00  0.00
  YS02001890YS02001895    1.00   0.00  0.04  0.00  0.96  0.00  0.00  0.00  0.00  0.00
  YS02001895YS02001898    1.00   0.04  0.00  0.00  0.95  0.00  0.01  0.00  0.00  0.00
  YS02001898YS02001901    1.00   0.04  0.00  0.00  0.96  0.00  0.00  0.00  0.00  0.00
  YS02001901YS02001904    1.00   0.04  0.00  0.00  0.96  0.00  0.00  0.00  0.00  0.00
  YS02001904YS02001907    1.00   0.00  0.04  0.00  0.96  0.00  0.00  0.00  0.00  0.00
  YS02001887YS02001890    1.00   0.00  0.00  0.00  0.99  0.00  0.01  0.00  0.00  0.00
  YS02001652YS02001649    1.00   0.00  0.00  0.00  1.00  0.00  0.00  0.00  0.14  0.00
  YS02001655YS02001652    1.00   0.00  0.00  0.00  0.95  0.00  0.00  0.05  0.01  0.00
  YS02001658YS02001655    1.00   0.00  0.04  0.00  0.94  0.02  0.00  0.00  0.01  0.00
  YS02001661YS02001658    1.00   0.04  0.00  0.00  0.93  0.03  0.00  0.00  0.00  0.00
  YS02001664YS02001661    1.00   0.04  0.00  0.00  0.94  0.03  0.00  0.00  0.06  0.00
  YSB1154YSB6556          1.00   0.04  0.00  0.00  0.96  0.00  0.00  0.00  0.01  0.00
  YSB1174YSB1171          1.00   0.02  0.01  0.00  0.97  0.00  0.00  0.00  0.00  0.00
  YSB1171HS02004479       1.00   0.01  0.00  0.00  0.98  0.00  0.00  0.00  0.09  0.00
  HS02004881HS02006253    1.00   0.02  0.00  0.00  0.69  0.03  0.00  0.27  0.56  0.00
  YS02001793JiankangQianchi    1.00   0.00  0.00  0.00  0.72  0.28  0.00  0.00  0.28  0.00
  YS02001757CaochengTiaoxuchi    1.00   0.00  0.06  0.00  0.91  0.03  0.00  0.00  0.00  0.00
  WSF200WS02003060        1.00   0.00  0.02  0.00  0.97  0.00  0.00  0.00  0.38  0.00
  1                       1.00   0.00  0.00  0.00  0.00  1.00  0.00  0.00  0.60  0.00
  
  
  *************************
  Conduit Surcharge Summary
  *************************
  
  ----------------------------------------------------------------------------
                                                           Hours        Hours 
                         --------- Hours Full --------   Above Full   Capacity
  Conduit                Both Ends  Upstream  Dnstream   Normal Flow   Limited
  ----------------------------------------------------------------------------
  WS02006280WS02006229        0.01      0.01      0.01      0.01         0.01
  WS02006229WS02006228        3.97      4.02      3.97      4.86         3.97
  WS02006256WS02006235        5.88      5.88      6.79      5.20         0.01
[...]
  YS02001649YS02001757        6.40      6.40      6.42      0.01         0.01
  YS02001767YS02001765        6.39      6.39      6.40      0.01         0.01
  YS02006561YS02001783        2.44      2.44      2.64      0.01         0.01
  YS02001783YS02001784        2.61      2.64      2.61      2.88         2.61
  YS02001784YS02001785        2.53      2.61      2.53      3.60         2.53
  YS02001788YS02001790        2.47      2.47      3.25      0.01         0.01
  YS02001790YS02001791        3.25      3.25      3.34      2.57         2.55
  YS02001791YS02001793        3.34      3.34      3.67      0.01         0.01
  YS02001910YS02001907        2.68      2.68      3.16      0.01         0.01
  YS02001786YS02001788        2.47      2.53      2.47      3.27         2.47
  YS02001915YS02001910        2.54      2.54      2.68      0.01         0.01
  YS02001918YS02001915        2.41      2.41      2.54      0.01         0.01
  YS02001923YS02001920        2.24      2.24      2.43      0.01         0.01
  YS02001926YS02001923        0.01      0.01      0.01      0.01         0.01
  YS02001929YS02001926        0.01      0.01      0.01      0.01         0.01
  YS02001920YS02001918        2.41      2.41      2.43      0.01         0.01
  YS02001629YS02163301        6.38      6.38      6.39      0.01         0.01
  YS02001619YS02001622        6.37      6.37      6.37      0.01         0.03
  YS02001622YS02001625        6.37      6.37      6.38      0.01         0.01
  YS02001625YS02001629        6.37      6.37      6.38      0.01         0.01
  YS02163301YS02001633        6.39      6.39      6.40      0.01         0.01
  YS02163601YS02164001        6.40      6.40      6.40      0.01         0.01
  YS02164001YS02001641        6.40      6.40      6.40      0.01         0.02
  YS02001641YS02001644        6.40      6.40      6.40      3.17         3.24
  YS02001647YS02001649        6.38      6.38      6.40      0.01         0.01
  YS02006553YS02006556        2.84      2.84      3.22      0.01         0.01
  YS02006556YS02006558        2.94      2.94      3.26      0.01         0.01
  YSB6556YSB1171              0.01      0.01      0.58      0.01         0.01
  YS02001907YS02006553        3.64      3.64      3.83      0.01         0.01
  YS02006558YS02006561        2.50      2.82      2.50      3.49         2.50
  YS02001633YS02163601        6.40      6.40      6.40      0.01         0.01
  YS02001644YS02001647        6.38      6.38      6.40      0.01         0.01
  YS02001745YS02001748        1.08      1.08      6.35      0.01         0.01
  YS02001748YS02001751        6.35      6.35      6.36      0.01         0.01
  YS02001751YS02001754        6.36      6.36      6.38      0.01         0.01
  YS02001754YS02001757        6.38      6.38      6.42      0.01         0.01
  YS02001882YS02001884        2.55      2.55      2.56      0.01         0.01
  YS02001884YS02001887        2.60      2.60      2.62      0.01         0.01
  YS02001890YS02001895        2.53      2.53      2.69      0.01         0.01
  YS02001895YS02001898        2.52      2.52      2.53      0.01         0.01
  YS02001898YS02001901        2.54      2.54      2.60      0.01         0.01
  YS02001901YS02001904        2.58      2.58      2.60      0.01         0.01
  YS02001904YS02001907        2.58      2.58      3.24      0.01         0.01
  YS02001887YS02001890        2.64      2.64      2.66      1.66         0.01
  YS02001652YS02001649        6.38      6.38      6.40      0.01         0.01
  YS02001655YS02001652        6.37      6.37      6.38      0.01         0.01
  YS02001658YS02001655        6.35      6.35      6.37      0.01         0.01
  YS02001661YS02001658        1.48      1.48      6.35      0.01         0.01
  YS02001664YS02001661        0.01      0.01      2.79      0.01         0.01
  YSB1174YSB1171              0.01      0.01      0.32      0.01         0.01
  HS02004881HS02006253        0.01      0.01      1.61      0.01         0.01
  YS02001793JiankangQianchi        3.58      3.58      4.75      0.01         0.01
  YS02001757CaochengTiaoxuchi        5.98      5.98      6.42      0.01         0.01
  
  
  ***************
  Pumping Summary
  ***************
  
  ---------------------------------------------------------------------------------------------------------
                                                  Min       Avg       Max     Total     Power    % Time Off
                        Percent   Number of      Flow      Flow      Flow    Volume     Usage    Pump Curve
  Pump                 Utilized   Start-Ups       LPS       LPS       LPS  10^6 ltr     Kw-hr    Low   High
  ---------------------------------------------------------------------------------------------------------
  CC-Pump-1               51.05           5      0.00    134.62    200.00     1.920      1.77    0.0    0.0
  CC-Pump-2               29.78           4      0.00    114.18    200.00     1.080      1.28    0.0    0.0
  JK-Pump-1               72.35           4      0.00    256.13    300.00     4.904     60.03    0.0    0.0
  JK-Pump-2               68.09           4      0.00    504.10    683.00     9.402    103.52    0.0   97.8
  XR-Pump-1              100.00           1      0.00     95.00     95.00     2.679     20.77    0.0    0.0
  XR-Pump-2               97.87           2      0.00     94.26     95.00     2.565     18.35    0.0    0.0
  XR-Pump-3               95.74           2      0.00     94.26     95.00     2.508     17.05    0.0    0.0
  XR-Pump-4               95.74           2      0.00     94.26     95.00     2.508     17.05    0.0    0.0
  
  
  ***************************
  Link Pollutant Load Summary
  ***************************
  
  ------------------------------------------------------------------------------------------
                                 COD            SS            TN            TP         NH4-N
  Link                            kg            kg            kg            kg            kg
  ------------------------------------------------------------------------------------------
  WS02003066WSF200          1353.151      2646.049        31.754         2.613        16.205
  WS02006287WS02006284       662.609      1308.409        17.241         1.527         9.011
  WS02006284WS02006280       663.053      1309.097        17.287         1.533         9.040
  WS02006280WS02006229       663.132      1309.349        17.286         1.533         9.039
  WS02006229WS02006228      1319.357      2581.269        30.603         2.492        15.561
  WS02006256WS02006235       308.830       589.156         6.574         0.491         3.268
  WS02006253WS02006251       129.167       261.778         2.734         0.199         1.336
  WS02006252WS02006251       360.446       710.377         6.791         0.469         3.269
  WS02006251WS02006249       482.191       958.031         9.381         0.658         4.535
  WS02006249WS02006248       377.210       744.938         7.373         0.518         3.570
  WS02006248WS02006247       382.786       755.583         7.503         0.529         3.637
  WS02006247WS02006245       381.744       752.786         7.492         0.528         3.634
  WS02006245WS02006243       380.446       749.574         7.470         0.527         3.624
  WS02006243WS02006242       380.002       747.777         7.471         0.528         3.626
  WS02006242WS02006240       378.109       743.155         7.440         0.526         3.612
  WS02006240WS02006239       377.536       741.460         7.430         0.526         3.608
  WS02006239WS02006238       378.362       742.832         7.441         0.527         3.613
  WS02006238WS02006235       378.803       743.583         7.441         0.526         3.612
  WS02006235WS02006234       660.315      1280.189        13.436         0.971         6.587
  WS02006234WS02006232       664.079      1287.631        13.531         0.980         6.637
  WS02006232WS02006231       667.589      1294.686        13.618         0.988         6.683
  WS02006231WS02006230       671.739      1303.157        13.716         0.996         6.733
  WS02006230WS02006229       677.179      1314.256        13.836         1.006         6.794
  WS02006228WS02006109      1319.788      2582.143        30.605         2.492        15.561
  WS02006116WS02004401      1358.449      2655.432        31.956         2.634        16.319
  WS02006115WS02006116      1357.844      2654.292        31.938         2.632        16.309
  WS02006113WS02006111      1329.193      2597.899        31.413         2.592        16.064
  WS02006112WS02006115      1358.256      2655.030        31.966         2.635        16.327
  WS02006111WS02006112      1329.028      2597.408        31.407         2.591        16.060
  WS02006110WS02006113      1329.115      2597.565        31.423         2.593        16.070
  WS02006109WS02006110      1329.113      2597.325        31.446         2.596        16.085
  WS02004411WS02004412      1356.643      2652.387        31.892         2.628        16.283
  WS02004401WS02004402      1358.042      2654.722        31.929         2.630        16.303
  WS02004413WS02003067      1353.906      2647.422        31.775         2.615        16.215
  WS02004412WS02004413      1355.664      2650.629        31.855         2.624        16.263
  WS02004410WS02004411      1357.218      2653.397        31.915         2.630        16.296
  WS02004409WS02004410      1357.776      2654.379        31.940         2.633        16.311
  WS02004407WS02004409      1357.970      2654.671        31.950         2.634        16.317
  WS02004406WS02004407      1357.712      2654.106        31.942         2.633        16.312
  WS02004405WS02004406      1358.619      2655.635        32.005         2.640        16.351
  WS02004404WS02004405      1358.382      2655.211        31.980         2.637        16.335
  WS02004403WS02004404      1357.488      2653.795        31.889         2.625        16.278
  WS02004402WS02004403      1357.898      2654.508        31.916         2.629        16.294
  WS02004139WS02001211      1288.150      2235.581        86.794        10.265        52.563
  WS02004138WS02004139      1293.523      2244.848        87.146        10.306        52.775
  WS02003067WS02003066      1353.366      2646.442        31.762         2.614        16.209
  WS02001213WS02003059      1323.140      2290.133        90.504        10.734        54.898
  WS02001212WS02001213      1331.049      2303.591        91.070        10.802        55.243
  WS02001211WS02001212      1333.135      2307.007        91.248        10.824        55.353
  WS02003072WS02003073      2776.585      5095.108       132.313        14.611        77.406
  WS02003069WS02003072      2781.915      5103.867       132.762        14.667        77.684
  WS02003060WS02003069      2784.638      5108.679       132.898        14.682        77.764
  WS02003059WS02003060      1320.689      2285.792        90.371        10.719        54.820
  HS02004901HS02004770        31.237        62.177         0.612         0.047         0.291
  HS02004876HS02004881       101.411       206.323         2.154         0.154         1.046
  HS02004870HS02004876        77.886       158.591         1.699         0.122         0.826
  HS02004842HS02004848        14.996        29.643         0.314         0.022         0.147
  HS02004837HS02004842        19.706        37.149         0.788         0.082         0.444
  HS02004830HS02004837       101.805       187.054         5.288         0.600         3.141
  HS02004824HS02004830       102.661       188.503         5.364         0.610         3.188
  HS02004817HS02004824       158.467       303.817         6.498         0.682         3.738
  HS02004770HS02004777       119.644       241.810         2.495         0.175         1.169
  HS02004799HS02004480       374.813       742.424         8.578         0.702         4.269
  HS02004792HS02004799       343.077       676.927         8.002         0.666         3.998
  HS02004788HS02004792       180.008       356.926         4.686         0.402         2.399
  HS02004785HS02004788       121.022       244.010         2.637         0.193         1.258
  HS02004777HS02004785       120.342       242.931         2.574         0.185         1.219
  HS02004480HS02004478       464.799       922.650        10.233         0.827         5.069
  HS02004479HS02004480        93.769       186.473         1.954         0.161         0.984
  HS02004862HS02004870        60.203       121.268         1.340         0.100         0.653
  HS02004848HS02004852        26.761        53.671         0.548         0.038         0.256
  HS02004856HS02004862        41.868        85.059         0.850         0.058         0.403
  HS02004852HS02004856        26.784        53.714         0.548         0.038         0.257
  HS02004802HS02004478       198.953       387.617         7.077         0.708         3.984
  HS02004478WS02006287       662.694      1308.458        17.257         1.529         9.021
  HS02004817HS02004807       157.278       302.045         6.357         0.664         3.649
  HS02004807HS02004802       198.920       387.521         7.102         0.712         4.000
  YS02001759YS02001757       586.262      1134.350        11.407         0.810         5.562
  YS02001762YS02001759       344.304       665.018         6.900         0.493         3.384
  YS02001765YS02001762       345.902       669.572         6.946         0.498         3.409
  YS02001770YS02001767       352.906       686.993         6.981         0.493         3.410
  YS02001774YS02001770       825.298      1639.920        16.195         1.105         7.867
  YS02001779YS02001774       824.935      1639.350        16.259         1.115         7.912
  YS02001649YS02001757       738.897      1431.049        14.717         1.012         7.127
  YS02001767YS02001765       348.803       676.704         7.018         0.504         3.447
  YS02006561YS02001783      1600.750      3070.003        33.132         2.427        16.340
  YS02001783YS02001784      1600.649      3069.851        33.127         2.426        16.337
  YS02001784YS02001785      1608.048      3081.753        33.840         2.515        16.783
  YS02001788YS02001790      1608.639      3082.730        33.911         2.525        16.829
  YS02001790YS02001791      1609.684      3084.457        34.011         2.537        16.891
  YS02001791YS02001793      1609.517      3084.144        34.005         2.537        16.887
  YS02001910YS02001907       952.194      1850.015        20.354         1.453        10.123
  YS02001786YS02001788      1608.260      3082.126        33.868         2.519        16.801
  YS02001915YS02001910       951.629      1848.884        20.305         1.446        10.091
  YS02001918YS02001915       473.365       888.448        10.551         0.857         5.396
  YS02001923YS02001920       447.672       844.251         8.515         0.610         4.140
  YS02001926YS02001923       444.571       838.601         8.394         0.598         4.071
  YS02001929YS02001926       441.870       833.772         8.299         0.588         4.017
  YS02001920YS02001918       468.811       878.842        10.453         0.850         5.348
  YS02001629YS02163301       210.481       398.134         4.142         0.295         1.981
  YS02001619YS02001622       451.017       868.430         9.084         0.615         4.291
  YS02001622YS02001625       450.709       868.038         9.072         0.614         4.286
  YS02001625YS02001629       204.866       387.155         4.042         0.287         1.931
  YS02163301YS02001633       216.219       409.382         4.242         0.303         2.031
  YS02163601YS02164001       716.055      1349.757        13.902         1.022         6.718
  YS02164001YS02001641       716.718      1350.951        13.902         1.021         6.716
  YS02001641YS02001644       719.105      1355.262        13.936         1.023         6.732
  YS02001647YS02001649       881.018      1692.155        17.768         1.247         8.540
  YS02006553YS02006556       810.078      1516.235        17.529         1.317         8.770
  YS02006556YS02006558       810.625      1517.271        17.497         1.312         8.747
  YSB6556YSB1171              54.544       108.517         1.086         0.087         0.541
  YS02001907YS02006553       809.852      1515.783        17.574         1.324         8.800
  YS02006558YS02006561      1600.630      3069.754        33.130         2.426        16.339
  YS02001633YS02163601       716.612      1350.671        13.878         1.017         6.699
  YS02001644YS02001647       888.632      1706.984        17.883         1.256         8.593
  YS02001745YS02001748       597.831      1178.457        11.859         0.761         5.722
  YS02001748YS02001751       597.369      1177.704        11.870         0.763         5.732
  YS02001751YS02001754       596.670      1176.571        11.859         0.763         5.727
  YS02001754YS02001757       597.856      1178.464        12.028         0.786         5.836
  YS02001882YS02001884         6.344        11.574         0.117         0.009         0.057
  YS02001884YS02001887         8.657        15.929         0.159         0.012         0.078
  YS02001890YS02001895       827.168      1598.345        15.723         1.198         7.699
  YS02001895YS02001898       827.014      1598.175        15.716         1.197         7.695
  YS02001898YS02001901       826.938      1597.957        15.716         1.197         7.695
  YS02001901YS02001904       826.514      1597.374        15.720         1.199         7.700
  YS02001904YS02001907       827.527      1598.901        15.802         1.208         7.750
  YS02001887YS02001890      1075.765      2094.635        20.306         1.549         9.938
  YS02001652YS02001649       544.022      1053.850        10.841         0.792         5.120
  YS02001655YS02001652       544.594      1054.794        10.857         0.793         5.128
  YS02001658YS02001655       544.276      1054.301        10.776         0.782         5.075
  YS02001661YS02001658       544.855      1055.205        10.790         0.783         5.080
  YS02001664YS02001661       556.696      1073.756        11.087         0.803         5.217
  YSB1154YSB6556              54.070       107.776         1.038         0.081         0.511
  YSB1174YSB1171              37.704        75.534         0.747         0.059         0.369
  YSB1171HS02004479           93.611       186.162         1.960         0.162         0.989
  HS02004881HS02006253       114.020       232.532         2.394         0.170         1.162
  YS02001793JiankangQianchi      1609.974      3084.908        34.022         2.538        16.897
  YS02001757CaochengTiaoxuchi       781.267      1519.460        15.079         1.038         7.280
  WSF200WS02003060          1352.976      2645.709        31.765         2.615        16.213
  1                         2782.770      5103.652       133.282        14.739        78.028
  CC-Pump-1                  229.732       452.566         4.326         0.298         2.081
  CC-Pump-2                  130.215       256.852         2.443         0.169         1.175
  JK-Pump-1                  463.732       894.016         9.609         0.709         4.748
  JK-Pump-2                 1004.196      1947.387        20.583         1.514        10.148
  XR-Pump-1                  350.774       605.119        24.397         2.902        14.824
  XR-Pump-2                  323.852       562.045        21.813         2.580        13.210
  XR-Pump-3                  311.115       541.666        20.591         2.427        12.446
  XR-Pump-4                  311.115       541.666        20.591         2.427        12.446
  

  Analysis begun on:  Fri Jul 16 01:48:01 2021
  Analysis ended on:  Fri Jul 16 01:48:04 2021
  Total elapsed time: 00:00:03