
  EPA STORM WATER MANAGEMENT MODEL - VERSION 5.1 (Build 5.3.0.dev0)
  --------------------------------------------------------------

  WARNING 04: minimum elevation drop used for Conduit WS02004404WS02004405
  WARNING 03: negative offset ignored for Link YS02001904YS02001907
  
  *********************************************************
  NOTE: The summary statistics displayed in this report are
  based on results found at every computational time step,  
  not just on results from each reporting time step.
  *********************************************************
  
  ****************
  Analysis Options
  ****************
  Flow Units ............... LPS
  Process Models:
    Rainfall/Runoff ........ YES
    RDII ................... NO
    Snowmelt ............... NO
    Groundwater ............ NO
    Flow Routing ........... YES
    Ponding Allowed ........ NO
    Water Quality .......... YES
  Infiltration Method ...... HORTON
  Flow Routing Method ...... DYNWAVE
  Surcharge Method ......... EXTRAN
  Starting Date ............ 08/28/2015 08:00:00
  Ending Date .............. 08/28/2015 15:50:00
  Antecedent Dry Days ...... 8.0
  Report Time Step ......... 00:01:00
  Wet Time Step ............ 00:01:00
  Dry Time Step ............ 00:01:00
  Routing Time Step ........ 5.00 sec
  Variable Time Step ....... YES
  Maximum Trials ........... 8
  Number of Threads ........ 4
  Head Tolerance ........... 0.001500 m
  
  
  **************************        Volume         Depth
  Runoff Quantity Continuity     hectare-m            mm
  **************************     ---------       -------
  Total Precipitation ......         7.641        16.729
  Evaporation Loss .........         0.000         0.000
  Infiltration Loss ........         1.184         2.592
  Surface Runoff ...........         5.481        12.000
  Final Storage ............         0.977         2.139
  Continuity Error (%) .....        -0.016
  
  
  **************************           COD            SS            TN            TP         NH4-N
  Runoff Quality Continuity             kg            kg            kg            kg            kg
  **************************    ----------    ----------    ----------    ----------    ----------
  Initial Buildup ..........     41378.656     70582.865      1804.177       168.684      1032.807
  Surface Buildup ..........        30.344        63.217         2.449         0.220         1.402
  Wet Deposition ...........         0.000         0.000         0.000         0.000         0.000
  Sweeping Removal .........         0.000         0.000         0.000         0.000         0.000
  Infiltration Loss ........       127.934       247.015         2.452         0.174         1.174
  BMP Removal ..............         0.000         0.000         0.000         0.000         0.000
  Surface Runoff ...........      5553.100     10632.121       107.101         7.411        51.076
  Remaining Buildup ........     35725.917     59762.998      1697.031       161.316       981.940
  Continuity Error (%) .....         0.005         0.006         0.002         0.002         0.002
  
  
  **************************        Volume        Volume
  Flow Routing Continuity        hectare-m      10^6 ltr
  **************************     ---------     ---------
  Dry Weather Inflow .......         0.616         6.165
  Wet Weather Inflow .......         5.479        54.792
  Groundwater Inflow .......         0.000         0.000
  RDII Inflow ..............         0.000         0.000
  External Inflow ..........         0.102         1.024
  External Outflow .........         2.047        20.468
  Flooding Loss ............         3.686        36.857
  Evaporation Loss .........         0.000         0.000
  Exfiltration Loss ........         0.000         0.000
  Initial Stored Volume ....         0.076         0.761
  Final Stored Volume ......         0.655         6.552
  Continuity Error (%) .....        -1.810
  
  
  **************************           COD            SS            TN            TP         NH4-N
  Quality Routing Continuity            kg            kg            kg            kg            kg
  **************************    ----------    ----------    ----------    ----------    ----------
  Dry Weather Inflow .......      1541.201      2465.922       147.955        18.494        92.472
  Wet Weather Inflow .......      5552.105     10630.375       107.080         7.410        51.066
  Groundwater Inflow .......         0.000         0.000         0.000         0.000         0.000
  RDII Inflow ..............         0.000         0.000         0.000         0.000         0.000
  External Inflow ..........       183.418       293.469        17.608         2.201        11.005
  External Outflow .........      2522.159      4493.448       141.732        16.289        84.666
  Flooding Loss ............      4005.043      7571.670       101.550         8.805        53.189
  Exfiltration Loss ........         0.000         0.000         0.000         0.000         0.000
  Mass Reacted .............         0.000         0.000         0.000         0.000         0.000
  Initial Stored Mass ......         0.000         0.000         0.000         0.000         0.000
  Final Stored Mass ........       636.663      1137.039        25.852         2.697        14.806
  Continuity Error (%) .....         1.551         1.401         1.287         1.115         1.219
  
  
  *************************
  Highest Continuity Errors
  *************************
  Node HS02004842 (10.96%)
  Node YS02001884 (10.40%)
  Node JK-storage (-9.10%)
  Node HS02004817 (2.13%)
  Node YSB1171 (1.97%)
  
  
  ***************************
  Time-Step Critical Elements
  ***************************
  Link WS02006252WS02006251 (64.55%)
  Link WS02006280WS02006229 (10.43%)
  Link WS02006238WS02006235 (9.68%)
  Link YS02006556YS02006558 (2.39%)
  Link WS02004404WS02004405 (1.77%)
  
  
  ********************************
  Highest Flow Instability Indexes
  ********************************
  Link WS02006113WS02006111 (39)
  Link YS02163301YS02001633 (35)
  Link YS02163601YS02164001 (34)
  Link YS02001629YS02163301 (34)
  Link YS02001619YS02001622 (33)
  
  
  *************************
  Routing Time Step Summary
  *************************
  Minimum Time Step           :     0.50 sec
  Average Time Step           :     1.20 sec
  Maximum Time Step           :     5.00 sec
  Percent in Steady State     :    -0.00
  Average Iterations per Step :     3.87
  Percent Not Converging      :    13.82
  
  
  ***************************
  Subcatchment Runoff Summary
  ***************************
  
  ------------------------------------------------------------------------------------------------------------------------------
                            Total      Total      Total      Total     Imperv       Perv      Total       Total     Peak  Runoff
                           Precip      Runon       Evap      Infil     Runoff     Runoff     Runoff      Runoff   Runoff   Coeff
  Subcatchment                 mm         mm         mm         mm         mm         mm         mm    10^6 ltr      LPS
  ------------------------------------------------------------------------------------------------------------------------------
  sub0                      16.73       0.00       0.00       0.71      15.51       0.47      15.98        0.01     3.87   0.955
  sub1                      16.73       0.00       0.00       1.18      14.80       0.66      15.46        0.10    26.74   0.924
  sub2                      16.73       0.00       0.00       4.79      10.46       1.40      11.85        0.11    25.81   0.708
  sub3                      16.73       0.00       0.00       5.01      10.42       1.18      11.60        0.26    56.97   0.693
  sub4                      16.73       0.00       0.00       1.28      14.64       0.56      15.20        0.32    66.74   0.909
  sub5                      16.73       0.00       0.00       0.73      15.46       0.44      15.91        0.18    46.91   0.951
  sub7                      16.73       0.00       0.00       0.93      15.16       0.58      15.74        0.05    14.85   0.941
  sub8                      16.73       0.00       0.00       0.94      15.15       0.57      15.72        0.10    27.42   0.940
  sub9                      16.73       0.00       0.00       0.94      15.15       0.57      15.72        0.08    20.52   0.940
  sub10                     16.73       0.00       0.00       0.83      15.30       0.50      15.81        0.17    46.04   0.945
  sub11                     16.73       0.00       0.00       0.83      15.32       0.51      15.83        0.18    50.62   0.947
  sub12                     16.73       0.00       0.00       1.34      14.51       0.83      15.34        0.13    39.22   0.917
  sub14                     16.73       0.00       0.00       0.94      15.15       0.57      15.72        0.15    40.40   0.939
  sub15                     16.73       0.00       0.00       3.54      11.65       1.48      13.13        0.23    57.86   0.785
  sub16                     16.73       0.00       0.00       3.72      11.17       1.80      12.97        0.14    37.34   0.776
  sub17                     16.73       0.00       0.00       3.62      11.33       1.73      13.07        0.11    30.57   0.781
  sub22                     16.73       0.00       0.00       5.27       9.49       1.92      11.42        0.72   183.11   0.683
  sub23                     16.73       0.00       0.00       4.37      10.50       1.82      12.32        0.59   153.57   0.736
  sub60                     16.73       0.00       0.00       1.74      12.78       0.27      13.05        3.96   446.24   0.780
  sub61                     16.73       0.00       0.00       2.46      12.72       0.38      13.11        4.04   542.53   0.784
  sub62                     16.73       0.00       0.00       1.06      13.91       0.27      14.19        4.36   558.01   0.848
  sub63                     16.73       0.00       0.00       4.39      11.06       0.46      11.52        3.49   496.40   0.689
  sub64                     16.73       0.00       0.00       2.23      12.28       0.28      12.56        3.82   424.95   0.751
  sub65                     16.73       0.00       0.00       1.91      12.51       0.27      12.77        3.93   431.32   0.764
  sub66                     16.73       0.00       0.00       4.54      10.46       0.31      10.78        3.31   388.44   0.644
  sub67                     16.73       0.00       0.00       1.01      14.45       0.32      14.78        4.56   675.76   0.883
  sub68                     16.73       0.00       0.00       1.95      13.33       0.39      13.71        4.22   589.75   0.820
  sub69                     16.73       0.00       0.00       2.00      13.62       0.51      14.12        3.30   542.07   0.844
  sub70                     16.73      14.42       0.00       8.47      19.01       2.12      21.13        4.84   534.50   0.678
  sub71                     16.73       0.00       0.00       1.08      13.65       0.25      13.90        3.28   394.68   0.831
  sub72                     16.73       0.00       0.00       1.02      11.50       0.15      11.65        2.37   206.66   0.697
  1                         16.73      20.58       0.00       1.37      22.38       7.20      29.58        6.95   612.18   0.793
  2                         16.73       0.00       0.00       3.02       4.04       3.18       7.22        2.89   331.58   0.431
  
  
  ****************************
  Subcatchment Washoff Summary
  ****************************
  
  ------------------------------------------------------------------------------------------
                                 COD            SS            TN            TP         NH4-N
  Subcatchment                    kg            kg            kg            kg            kg
  ------------------------------------------------------------------------------------------
  sub0                         3.641         7.161         0.064         0.005         0.031
  sub1                        15.670        31.767         0.296         0.021         0.143
  sub2                        10.304        20.454         0.214         0.015         0.099
  sub3                        25.293        49.815         0.517         0.036         0.240
  sub4                        36.168        74.260         0.714         0.044         0.344
  sub5                        35.763        71.366         0.649         0.050         0.316
  sub7                         7.894        16.212         0.150         0.010         0.073
  sub8                        11.755        24.726         0.234         0.014         0.113
  sub9                        10.113        20.966         0.196         0.013         0.095
  sub10                       29.347        59.341         0.545         0.040         0.265
  sub11                       28.395        58.052         0.536         0.037         0.260
  sub12                       24.463        49.072         0.450         0.034         0.218
  sub14                       21.697        44.543         0.414         0.028         0.200
  sub15                       29.696        58.821         0.572         0.042         0.270
  sub16                       19.246        38.050         0.367         0.028         0.174
  sub17                       17.687        34.653         0.330         0.026         0.156
  sub22                       95.915       186.896         1.820         0.139         0.857
  sub23                       54.382       109.539         1.141         0.076         0.527
  sub60                      353.947       679.509         6.988         0.437         3.357
  sub61                      439.695       840.113         8.188         0.570         3.952
  sub62                      449.790       873.119         8.744         0.564         4.209
  sub63                      328.186       618.356         6.505         0.463         3.037
  sub64                      450.924       835.563         8.299         0.611         3.976
  sub65                      460.537       856.688         8.527         0.617         4.090
  sub66                      259.427       485.147         5.248         0.348         2.463
  sub67                      667.181      1281.068        12.075         0.900         5.853
  sub68                      479.473       924.467         9.153         0.628         4.389
  sub69                      429.286       835.450         8.068         0.576         3.873
  sub70                      758.301      1478.311        15.194         1.074         7.173
  sub71                      296.268       580.620         6.027         0.356         2.890
  sub72                      247.759       452.374         4.612         0.320         2.223
  1                          576.917      1130.968        11.723         0.829         5.484
  2                           65.566       118.435         1.802         0.109         0.773
  ------------------------------------------------------------------------------------------
  System                    6740.687     12945.882       130.363         9.060        62.122
  
  
  ******************
  Node Depth Summary
  ******************
  
  ---------------------------------------------------------------------------------
                                 Average  Maximum  Maximum  Time of Max    Reported
                                   Depth    Depth      HGL   Occurrence   Max Depth
  Node                 Type       Meters   Meters   Meters  days hr:min      Meters
  ---------------------------------------------------------------------------------
  WS02001211           JUNCTION     0.78     0.85     5.69     0  02:01        0.85
  WS02001212           JUNCTION     0.48     0.58     5.65     0  02:01        0.58
  WS02001213           JUNCTION     0.72     0.86     5.62     0  02:01        0.86
  WS02003069           JUNCTION     0.52     0.72     5.31     0  02:00        0.72
  WS02003072           JUNCTION     0.58     0.77     5.14     0  02:00        0.77
  WS02003073           JUNCTION     0.35     0.48     4.55     0  02:01        0.48
  WS02003060           JUNCTION     0.46     0.64     5.57     0  02:00        0.64
  WS02003066           JUNCTION     0.24     0.39     5.94     0  01:55        0.39
  WS02003059           JUNCTION     0.77     0.91     5.60     0  02:00        0.91
  WS02003067           JUNCTION     0.59     0.83     6.15     0  01:53        0.83
  WS02004401           JUNCTION     0.72     1.30     7.30     0  01:51        1.29
  WS02004402           JUNCTION     0.75     1.29     7.25     0  01:51        1.27
  WS02004403           JUNCTION     0.77     1.26     7.19     0  01:51        1.23
  WS02004404           JUNCTION     0.84     1.31     7.16     0  01:51        1.27
  WS02004406           JUNCTION     0.84     1.20     7.03     0  01:51        1.18
  WS02004409           JUNCTION     0.53     0.98     6.75     0  01:54        0.98
  WS02004410           JUNCTION     0.55     0.96     6.68     0  01:54        0.96
  WS02004411           JUNCTION     0.56     0.94     6.62     0  01:54        0.94
  WS02004412           JUNCTION     0.57     0.92     6.56     0  01:54        0.91
  WS02004413           JUNCTION     0.73     1.03     6.50     0  01:54        1.03
  WS02004405           JUNCTION     0.83     1.28     7.13     0  01:51        1.24
  WS02006109           JUNCTION     0.82     1.74     8.36     0  01:52        1.74
  WS02006110           JUNCTION     0.80     1.63     8.22     0  01:51        1.54
  WS02006111           JUNCTION     0.26     1.02     7.73     0  01:51        0.97
  WS02006112           JUNCTION     0.91     1.65     7.53     0  01:51        1.64
  WS02006113           JUNCTION     0.38     1.41     8.30     0  01:51        1.01
  WS02006115           JUNCTION     0.62     1.31     7.45     0  01:51        1.29
  WS02006116           JUNCTION     0.70     1.34     7.38     0  01:51        1.33
  WS02006230           JUNCTION     0.83     1.97     8.72     0  01:52        1.95
  WS02006231           JUNCTION     0.58     1.61     8.73     0  01:52        1.59
  WS02006232           JUNCTION     0.72     1.70     8.74     0  01:52        1.67
  WS02006234           JUNCTION     0.65     1.59     8.75     0  01:52        1.57
  WS02006235           JUNCTION     0.68     1.60     8.76     0  01:52        1.58
  WS02006238           JUNCTION     0.71     1.61     8.76     0  01:52        1.59
  WS02006240           JUNCTION     0.59     1.44     8.74     0  01:52        1.43
  WS02006242           JUNCTION     0.64     1.46     8.72     0  01:52        1.44
  WS02006243           JUNCTION     0.51     1.30     8.72     0  01:52        1.29
  WS02006245           JUNCTION     0.48     1.22     8.71     0  01:52        1.22
  WS02006247           JUNCTION     0.49     1.22     8.72     0  04:11        1.20
  WS02006248           JUNCTION     0.42     1.10     8.69     0  01:51        1.10
  WS02006249           JUNCTION     0.44     1.09     8.69     0  01:50        1.09
  WS02006239           JUNCTION     0.66     1.54     8.75     0  01:52        1.52
  WS02006251           JUNCTION     0.42     1.43     9.10     0  02:58        1.35
  WS02006252           JUNCTION     0.28     0.97     9.21     0  02:58        0.82
  WS02006253           JUNCTION     0.44     2.32     9.97     0  02:57        1.21
  WS02006256           JUNCTION     1.84     2.35     9.28     0  00:22        2.35
  WS02004138           JUNCTION     0.19     0.20     7.45     0  00:00        0.19
  WS02004139           JUNCTION     0.72     0.79     5.70     0  02:01        0.79
  WS02004407           JUNCTION     0.24     0.40     6.72     0  01:52        0.40
  WS02006228           JUNCTION     0.84     1.93     8.58     0  01:52        1.92
  WS02006229           JUNCTION     0.83     2.01     8.70     0  01:52        1.98
  WS02006280           JUNCTION     0.08     0.32     8.60     0  01:51        0.30
  WS02006284           JUNCTION     0.38     0.66     9.06     0  01:54        0.66
  WS02006287           JUNCTION     0.11     0.40     9.36     0  01:54        0.40
  WSF200               JUNCTION     0.23     0.44     5.68     0  01:54        0.44
  HS02004901           JUNCTION     0.14     0.38    10.21     0  01:53        0.38
  HS02004881           JUNCTION     0.01     0.05     9.08     0  01:54        0.05
  HS02004876           JUNCTION     0.05     0.17     9.20     0  01:54        0.17
  HS02004870           JUNCTION     0.02     0.10     9.38     0  01:54        0.10
  HS02004862           JUNCTION     0.02     0.11     9.50     0  01:55        0.11
  HS02004856           JUNCTION     0.08     0.15     9.58     0  01:54        0.15
  HS02004852           JUNCTION     0.01     0.08     9.59     0  01:54        0.08
  HS02004848           JUNCTION     0.01     0.07     9.67     0  01:54        0.07
  HS02004842           JUNCTION     0.34     0.40     9.67     0  01:54        0.40
  HS02004837           JUNCTION     0.03     0.09     9.67     0  01:54        0.09
  HS02004830           JUNCTION     0.04     0.11     9.58     0  01:55        0.11
  HS02004824           JUNCTION     0.03     0.15     9.55     0  01:54        0.15
  HS02004817           JUNCTION     0.45     0.71     9.56     0  01:54        0.71
  HS02004807           JUNCTION     0.14     0.38     9.55     0  01:55        0.38
  HS02004802           JUNCTION     0.17     0.41     9.54     0  01:55        0.41
  HS02004799           JUNCTION     0.13     0.48     9.69     0  01:53        0.48
  HS02004792           JUNCTION     0.04     0.22     9.75     0  01:53        0.22
  HS02004788           JUNCTION     0.03     0.16    10.06     0  01:53        0.16
  HS02004785           JUNCTION     0.05     0.25    10.15     0  01:53        0.25
  HS02004777           JUNCTION     0.16     0.40    10.20     0  01:53        0.40
  HS02004770           JUNCTION     0.13     0.37    10.21     0  01:53        0.37
  HS02004480           JUNCTION     0.09     0.39     9.64     0  01:53        0.39
  HS02004479           JUNCTION     0.13     0.43     9.64     0  01:53        0.43
  HS02004478           JUNCTION     0.07     0.29     9.52     0  01:54        0.29
  YS02001745           JUNCTION     0.79     0.97     8.49     0  02:51        0.97
  YS02001748           JUNCTION     1.20     1.41     8.49     0  02:46        1.40
  YS02001751           JUNCTION     1.38     1.60     8.48     0  02:48        1.59
  YS02001754           JUNCTION     1.64     1.87     8.47     0  02:47        1.86
  YS02001762           JUNCTION     1.84     2.06     8.46     0  02:48        2.05
  YS02001765           JUNCTION     1.79     2.00     8.45     0  02:48        2.00
  YS02001767           JUNCTION     1.75     1.96     8.45     0  02:48        1.95
  YS02001770           JUNCTION     1.74     1.94     8.44     0  02:48        1.94
  YS02001774           JUNCTION     1.81     1.99     8.42     0  02:46        1.98
  YS02001779           JUNCTION     1.55     1.68     8.37     0  01:47        1.68
  YS02001882           JUNCTION     0.65     1.64     8.35     0  02:15        1.63
  YS02001884           JUNCTION     0.75     1.74     8.35     0  02:08        1.73
  YS02001759           JUNCTION     1.87     2.10     8.46     0  02:47        2.09
  YS02001887           JUNCTION     0.82     1.81     8.35     0  02:11        1.81
  YS02001890           JUNCTION     0.85     1.81     8.32     0  01:52        1.81
  YS02001898           JUNCTION     0.62     1.56     8.30     0  01:52        1.56
  YS02001901           JUNCTION     0.74     1.68     8.29     0  01:52        1.67
  YS02001904           JUNCTION     0.71     1.64     8.27     0  01:52        1.63
  YS02001907           JUNCTION     1.04     1.96     8.25     0  01:52        1.96
  YS02001910           JUNCTION     0.84     1.82     8.33     0  01:53        1.79
  YS02001915           JUNCTION     0.64     1.66     8.38     0  01:53        1.63
  YS02001918           JUNCTION     0.38     1.41     8.48     0  01:53        1.34
  YS02001619           JUNCTION     1.33     1.60     8.53     0  01:45        1.48
  YS02001629           JUNCTION     1.69     1.85     8.40     0  01:46        1.84
  YS02001641           JUNCTION     1.79     1.94     8.37     0  01:59        1.93
  YS02001644           JUNCTION     1.79     1.92     8.35     0  01:47        1.92
  YS02001652           JUNCTION     1.65     2.00     8.60     0  04:14        1.85
  YS02001655           JUNCTION     1.41     1.88     8.73     0  04:14        1.62
  YS02001920           JUNCTION     0.48     1.51     8.52     0  01:53        1.43
  YS02001923           JUNCTION     0.31     1.30     8.56     0  01:53        1.22
  YS02001926           JUNCTION     0.35     1.13     8.58     0  01:53        1.06
  YS02001929           JUNCTION     0.21     0.92     8.61     0  01:53        0.85
  YS02001658           JUNCTION     1.14     1.73     8.87     0  04:16        1.40
  YS02001661           JUNCTION     0.90     1.87     9.28     0  04:14        1.28
  YS02001664           JUNCTION     0.41     0.57     8.50     0  04:18        0.56
  YS02001622           JUNCTION     1.36     1.59     8.49     0  01:45        1.50
  YS02001633           JUNCTION     1.78     1.95     8.40     0  01:47        1.94
  YS02001649           JUNCTION     1.84     2.05     8.44     0  02:45        2.05
  YS02001757           JUNCTION     1.97     2.20     8.46     0  02:48        2.19
  YS02001895           JUNCTION     0.61     1.57     8.31     0  02:09        1.56
  YS02001625           JUNCTION     1.64     1.78     8.38     0  01:45        1.78
  YS02163301           JUNCTION     1.72     1.89     8.41     0  01:46        1.88
  YS02163601           JUNCTION     1.83     1.99     8.39     0  01:47        1.98
  YS02164001           JUNCTION     1.77     1.92     8.38     0  01:47        1.92
  YS02001647           JUNCTION     1.62     1.80     8.41     0  04:18        1.79
  YSB1154              JUNCTION     0.27     0.58     9.64     0  01:53        0.58
  YSB6556              JUNCTION     0.16     0.47     9.64     0  01:53        0.47
  YSB1174              JUNCTION     0.22     0.53     9.64     0  01:53        0.53
  YSB1171              JUNCTION     0.42     0.74     9.64     0  01:53        0.74
  YS02006553           JUNCTION     1.05     1.97     8.25     0  02:08        1.97
  YS02006561           JUNCTION     0.38     1.08     7.74     0  02:20        1.07
  YS02006556           JUNCTION     1.01     1.94     8.25     0  01:52        1.93
  YS02006558           JUNCTION     1.05     1.98     8.25     0  02:14        1.97
  YS02001783           JUNCTION     0.61     1.46     7.61     0  02:08        1.46
  YS02001784           JUNCTION     0.62     1.40     7.47     0  02:14        1.40
  YS02001786           JUNCTION     0.55     1.24     7.27     0  02:12        1.24
  YS02001788           JUNCTION     0.47     1.11     7.08     0  02:13        1.10
  YS02001790           JUNCTION     0.59     1.59     7.23     0  04:30        1.26
  YS02001791           JUNCTION     0.55     1.48     6.95     0  06:06        1.23
  YS02001793           JUNCTION     0.77     1.82     6.66     0  06:02        1.78
  WSC                  OUTFALL      0.35     0.48     1.15     0  02:01        0.48
  JK-storage           STORAGE      2.99     5.80     6.60     0  04:31        5.80
  CC-storage           STORAGE      1.22     1.46     8.46     0  02:49        1.46
  XR-storage           STORAGE      7.09     7.72     5.72     0  02:09        7.72
  
  
  *******************
  Node Inflow Summary
  *******************
  
  -------------------------------------------------------------------------------------------------
                                  Maximum  Maximum                  Lateral       Total        Flow
                                  Lateral    Total  Time of Max      Inflow      Inflow     Balance
                                   Inflow   Inflow   Occurrence      Volume      Volume       Error
  Node                 Type           LPS      LPS  days hr:min    10^6 ltr    10^6 ltr     Percent
  -------------------------------------------------------------------------------------------------
  WS02001211           JUNCTION      7.35   390.20     0  03:16       0.207        10.4       0.387
  WS02001212           JUNCTION      0.00   393.06     0  03:16           0        10.3       0.234
  WS02001213           JUNCTION      0.00   395.61     0  03:16           0        10.3       0.272
  WS02003069           JUNCTION      0.32  1347.02     0  02:00     0.00902        20.5       0.162
  WS02003072           JUNCTION      0.00  1347.06     0  02:01           0        20.5       0.197
  WS02003073           JUNCTION      1.82  1349.21     0  02:01      0.0514        20.5       0.228
  WS02003060           JUNCTION     16.53  1346.72     0  02:00       0.466        20.6       0.152
  WS02003066           JUNCTION      0.00   957.20     0  01:55           0        9.86       0.041
  WS02003059           JUNCTION      0.00   399.10     0  03:16           0        10.3       0.389
  WS02003067           JUNCTION      0.00   956.93     0  01:54           0        9.87       0.087
  WS02004401           JUNCTION      0.00   968.39     0  01:52           0        10.1       0.172
  WS02004402           JUNCTION      0.00   970.85     0  01:53           0        10.1       0.165
  WS02004403           JUNCTION      0.00   968.66     0  01:52           0          10       0.154
  WS02004404           JUNCTION      0.16   969.39     0  01:52     0.00457          10       0.116
  WS02004406           JUNCTION      0.00   971.34     0  01:52           0          10       0.293
  WS02004409           JUNCTION      0.00   968.52     0  01:52           0        9.96       0.134
  WS02004410           JUNCTION      0.00   956.58     0  01:53           0        9.95       0.157
  WS02004411           JUNCTION      0.00   954.88     0  01:54           0        9.94       0.166
  WS02004412           JUNCTION      0.00   956.34     0  01:54           0        9.92       0.184
  WS02004413           JUNCTION      0.00   956.72     0  01:54           0         9.9       0.279
  WS02004405           JUNCTION      0.04   971.08     0  01:52     0.00107          10       0.177
  WS02006109           JUNCTION      1.23   936.17     0  01:52      0.0347          10       0.102
  WS02006110           JUNCTION      0.00   936.45     0  01:53           0          10       0.141
  WS02006111           JUNCTION      0.00   936.55     0  01:53           0          10       0.019
  WS02006112           JUNCTION     30.57   967.66     0  01:53       0.112        10.1       0.243
  WS02006113           JUNCTION      0.00   936.24     0  01:53           0          10       0.058
  WS02006115           JUNCTION      0.00   967.47     0  01:53           0        10.1       0.145
  WS02006116           JUNCTION      0.00   968.49     0  01:52           0        10.1       0.133
  WS02006230           JUNCTION     10.28   518.94     0  03:34        0.29        6.94       0.095
  WS02006231           JUNCTION      0.00   508.45     0  03:35           0        6.65       0.020
  WS02006232           JUNCTION      0.00   508.45     0  03:35           0        6.65       0.142
  WS02006234           JUNCTION      0.00   508.66     0  03:33           0        6.65       0.011
  WS02006235           JUNCTION      0.00   509.08     0  03:33           0        6.74       0.071
  WS02006238           JUNCTION      0.00   348.22     0  07:32           0        3.06      -0.044
  WS02006240           JUNCTION      0.00   352.61     0  07:31           0        2.99       0.048
  WS02006242           JUNCTION      0.00   356.47     0  07:31           0        2.96       0.088
  WS02006243           JUNCTION      0.00   362.14     0  04:41           0        2.93      -0.082
  WS02006245           JUNCTION      0.00   367.83     0  04:41           0        2.93       0.204
  WS02006247           JUNCTION      0.00   372.17     0  04:41           0        2.92       0.028
  WS02006248           JUNCTION      0.00   377.12     0  04:41           0        2.93      -0.098
  WS02006249           JUNCTION      0.00   466.03     0  02:30           0        3.14       0.113
  WS02006239           JUNCTION      0.00   349.61     0  07:32           0        3.02      -0.104
  WS02006251           JUNCTION      0.08   463.80     0  02:30     0.00217        3.19      -0.035
  WS02006252           JUNCTION      0.00   399.99     0  03:00           0        2.52       0.001
  WS02006253           JUNCTION      3.87   169.67     0  03:30      0.0129       0.664      -0.084
  WS02006256           JUNCTION      0.00   983.00     0  01:50           0        12.2      -0.001
  WS02004138           JUNCTION      0.00   380.00     0  00:00           0        10.2       0.067
  WS02004139           JUNCTION      0.32   394.45     0  00:00     0.00905        10.2       0.444
  WS02004407           JUNCTION      0.00   972.02     0  01:52           0        9.97       0.056
  WS02006228           JUNCTION      0.00   935.21     0  01:52           0          10       0.072
  WS02006229           JUNCTION      0.00   985.56     0  01:51           0          10       0.120
  WS02006280           JUNCTION      0.00   736.10     0  01:54           0        3.11       0.012
  WS02006284           JUNCTION      0.10   735.83     0  01:54      0.0027        3.11       0.019
  WS02006287           JUNCTION      0.00   735.62     0  01:54           0        3.11       0.023
  WSF200               JUNCTION      0.00   957.35     0  01:55           0        9.86       0.037
  HS02004901           JUNCTION     37.34    37.34     0  01:51       0.136       0.136       1.311
  HS02004881           JUNCTION     14.85   153.29     0  01:54       0.053       0.601       0.088
  HS02004876           JUNCTION     26.74   139.06     0  01:54       0.103       0.549       0.099
  HS02004870           JUNCTION     27.42   112.65     0  01:54         0.1       0.446       0.025
  HS02004862           JUNCTION     26.01    86.18     0  01:54       0.116       0.346       0.050
  HS02004856           JUNCTION     20.52    60.23     0  01:54      0.0756       0.231       0.629
  HS02004852           JUNCTION      0.00    40.37     0  01:54           0       0.155       0.036
  HS02004848           JUNCTION     56.97    56.97     0  01:56       0.261       0.261       0.018
  HS02004842           JUNCTION      0.00    18.18     0  02:06           0       0.119      12.307
  HS02004837           JUNCTION     52.39    67.87     0  01:54       0.353       0.459       0.177
  HS02004830           JUNCTION      0.15    67.98     0  01:54     0.00423       0.449       0.275
  HS02004824           JUNCTION     66.79   134.67     0  01:56       0.318       0.767       0.071
  HS02004817           JUNCTION      0.60   136.79     0  01:57      0.0169       0.783       2.174
  HS02004807           JUNCTION     50.62   183.90     0  01:55       0.184       0.952       0.460
  HS02004802           JUNCTION      0.00   183.88     0  01:56           0        0.95       0.414
  HS02004799           JUNCTION     40.40   470.76     0  01:53        0.15        1.87       0.159
  HS02004792           JUNCTION    183.39   430.98     0  01:53       0.729        1.72       0.023
  HS02004788           JUNCTION     59.53   248.80     0  01:53       0.273       0.991       0.039
  HS02004785           JUNCTION      0.15   189.56     0  01:53     0.00423        0.72       0.069
  HS02004777           JUNCTION      0.03   189.71     0  01:52    0.000846        0.72       0.728
  HS02004770           JUNCTION    153.57   190.37     0  01:52       0.587       0.722       0.429
  HS02004480           JUNCTION      0.00   554.35     0  01:53           0        2.18       0.044
  HS02004479           JUNCTION      0.00    83.75     0  01:53           0       0.323       0.229
  HS02004478           JUNCTION      0.00   735.58     0  01:54           0        3.11       0.010
  YS02001745           JUNCTION    446.25   446.25     0  02:16        3.95        3.95       0.292
  YS02001748           JUNCTION      0.04   450.38     0  02:16     0.00127        3.94       0.586
  YS02001751           JUNCTION      0.01   450.78     0  02:16     0.00031        3.92       0.611
  YS02001754           JUNCTION      0.26   450.85     0  02:16     0.00733        3.91       0.629
  YS02001762           JUNCTION      0.00   435.13     0  01:55           0        2.44       0.872
  YS02001765           JUNCTION      0.00   435.45     0  01:55           0        2.44       1.003
  YS02001767           JUNCTION      0.54   435.86     0  01:55      0.0151        2.46       1.464
  YS02001770           JUNCTION    558.16   765.00     0  02:52        4.36         5.5       0.569
  YS02001774           JUNCTION      0.00   765.01     0  02:52           0        4.16       0.600
  YS02001779           JUNCTION      0.01   765.02     0  02:52    0.000141        4.13       0.379
  YS02001882           JUNCTION      0.00    23.25     0  01:48           0      0.0219      10.411
  YS02001884           JUNCTION      0.00    46.57     0  01:48           0      0.0586      11.603
  YS02001759           JUNCTION    542.57   877.00     0  01:56        4.04        5.32       0.433
  YS02001887           JUNCTION    676.21   676.96     0  02:11        4.57         4.6       0.184
  YS02001890           JUNCTION      0.00   677.53     0  02:13           0        4.56       0.200
  YS02001898           JUNCTION      0.00   539.98     0  01:52           0        4.27       0.073
  YS02001901           JUNCTION      0.00   538.60     0  01:52           0        4.27       0.156
  YS02001904           JUNCTION      0.00   539.14     0  01:52           0        4.27       0.139
  YS02001907           JUNCTION      0.00  1180.55     0  01:54           0        9.98       0.247
  YS02001910           JUNCTION      0.00   658.58     0  01:54           0        5.72       0.211
  YS02001915           JUNCTION    394.70   657.93     0  01:54        3.28        5.77       0.101
  YS02001918           JUNCTION      0.00   359.23     0  01:54           0        2.52       0.067
  YS02001619           JUNCTION    388.44   388.44     0  02:16         3.3         3.3       0.373
  YS02001629           JUNCTION      0.00   220.10     0  01:48           0        1.43       2.046
  YS02001641           JUNCTION      0.00   457.40     0  01:48           0        5.09       0.412
  YS02001644           JUNCTION    424.99  1608.31     0  02:46        3.82        14.7       0.184
  YS02001652           JUNCTION      0.00   517.12     0  02:10           0        3.44       0.672
  YS02001655           JUNCTION      0.15   515.49     0  02:10     0.00434        3.46       0.730
  YS02001920           JUNCTION      2.87   358.81     0  01:54      0.0809         2.5       0.131
  YS02001923           JUNCTION      0.04   296.61     0  01:54     0.00106         2.4       0.047
  YS02001926           JUNCTION      0.05   235.56     0  01:54     0.00147        2.38       0.133
  YS02001929           JUNCTION    206.66   206.66     0  03:01        2.37        2.37       0.023
  YS02001658           JUNCTION      0.00   517.57     0  02:10           0        3.48       0.695
  YS02001661           JUNCTION      0.00   747.53     0  01:57           0        3.81      -0.074
  YS02001664           JUNCTION    496.40   496.40     0  02:16        3.49        3.81       0.170
  YS02001622           JUNCTION      0.00   389.15     0  02:16           0        3.29       0.967
  YS02001633           JUNCTION    431.52   456.97     0  01:48        3.93        5.24       0.614
  YS02001649           JUNCTION      0.00  1002.05     0  01:50           0        7.69       0.480
  YS02001757           JUNCTION      0.00  2148.51     0  01:56           0        9.99       0.921
  YS02001895           JUNCTION      0.00   541.19     0  01:52           0        4.28       0.122
  YS02001625           JUNCTION      0.00   435.41     0  02:16           0        3.34       1.188
  YS02163301           JUNCTION      0.00   225.22     0  01:45           0        1.42       1.708
  YS02163601           JUNCTION      0.11   456.99     0  01:48      0.0031        5.11       0.586
  YS02164001           JUNCTION      0.00   456.78     0  01:48           0        5.09       0.394
  YS02001647           JUNCTION      0.00   846.70     0  02:56           0        6.86       0.413
  YSB1154              JUNCTION     46.91    46.91     0  01:52        0.18       0.181       0.805
  YSB6556              JUNCTION      0.00    46.64     0  01:52           0       0.182       0.696
  YSB1174              JUNCTION     39.22    39.22     0  01:50       0.134       0.134       0.962
  YSB1171              JUNCTION      0.00    84.02     0  01:52           0       0.322       2.011
  YS02006553           JUNCTION      0.00   716.41     0  03:35           0        7.35       0.211
  YS02006561           JUNCTION      0.00  1084.18     0  01:52           0        11.5       0.007
  YS02006556           JUNCTION      0.00   716.53     0  03:35           0        7.36       0.150
  YS02006558           JUNCTION    590.63  1085.21     0  01:52        4.24        11.6       0.043
  YS02001783           JUNCTION      0.00  1069.61     0  01:52           0        11.5       0.020
  YS02001784           JUNCTION      1.06  1071.54     0  01:52      0.0299        11.6       0.031
  YS02001786           JUNCTION      0.06  1072.09     0  01:52     0.00159        11.6       0.031
  YS02001788           JUNCTION      0.07  1073.59     0  01:52       0.002        11.6       0.019
  YS02001790           JUNCTION      0.15  1069.20     0  01:52     0.00437        11.6       0.016
  YS02001791           JUNCTION      0.00  1069.06     0  01:52           0        11.6       0.010
  YS02001793           JUNCTION      0.00  1069.61     0  01:52           0        11.6      -0.029
  WSC                  OUTFALL       0.00  1349.79     0  02:01           0        20.5       0.000
  JK-storage           STORAGE       0.00  1070.01     0  01:52           0        11.7      -8.343
  CC-storage           STORAGE       0.00  2148.56     0  01:56           0         6.6       0.999
  XR-storage           STORAGE    1054.62  1054.62     0  03:01        15.5        16.1      -0.005
  
  
  **********************
  Node Surcharge Summary
  **********************
  
  Surcharging occurs when water rises above the top of the highest conduit.
  ---------------------------------------------------------------------
                                               Max. Height   Min. Depth
                                   Hours       Above Crown    Below Rim
  Node                 Type      Surcharged         Meters       Meters
  ---------------------------------------------------------------------
  WS02004401           JUNCTION        1.01          0.301        1.359
  WS02004402           JUNCTION        1.06          0.287        1.453
  WS02004403           JUNCTION        1.07          0.265        1.765
  WS02004404           JUNCTION        1.35          0.307        2.473
  WS02004406           JUNCTION        1.21          0.203        2.247
  WS02004413           JUNCTION        0.44          0.031        2.169
  WS02004405           JUNCTION        1.26          0.275        2.525
  WS02006109           JUNCTION        3.17          0.925        0.895
  WS02006110           JUNCTION        1.72          0.721        1.129
  WS02006111           JUNCTION        0.36          0.213        1.657
  WS02006112           JUNCTION        1.89          0.647        1.033
  WS02006113           JUNCTION        0.38          0.607        1.323
  WS02006115           JUNCTION        0.77          0.297        1.953
  WS02006116           JUNCTION        0.81          0.279        2.011
  WS02006230           JUNCTION        1.44          0.892        0.678
  WS02006231           JUNCTION        1.73          0.899        0.631
  WS02006232           JUNCTION        3.21          0.997        0.483
  WS02006234           JUNCTION        2.43          0.872        0.368
  WS02006235           JUNCTION        2.72          0.887        0.403
  WS02006238           JUNCTION        2.82          0.891        0.539
  WS02006240           JUNCTION        1.96          0.734        0.656
  WS02006242           JUNCTION        2.12          0.725        0.095
  WS02006243           JUNCTION        1.49          0.589        0.181
  WS02006245           JUNCTION        1.37          0.513        0.337
  WS02006247           JUNCTION        1.36          0.511        0.249
  WS02006248           JUNCTION        1.25          0.380        0.000
  WS02006249           JUNCTION        1.28          0.390        0.000
  WS02006239           JUNCTION        2.35          0.798        0.492
  WS02006251           JUNCTION        0.50          0.403        0.777
  WS02006252           JUNCTION        1.41          0.566        0.534
  WS02006253           JUNCTION        0.74          1.284        1.196
  WS02006256           JUNCTION        6.91          2.050        0.000
  WS02006228           JUNCTION        3.06          1.100        1.100
  HS02004817           JUNCTION        0.14          0.010        1.730
  YS02001748           JUNCTION        6.04          0.331        0.859
  YS02001751           JUNCTION        6.09          0.601        0.599
  YS02001754           JUNCTION        6.14          0.816        0.334
  YS02001762           JUNCTION        6.19          1.063        0.087
  YS02001765           JUNCTION        6.18          1.004        0.096
  YS02001767           JUNCTION        6.18          0.961        0.069
  YS02001770           JUNCTION        6.18          0.911        0.009
  YS02001774           JUNCTION        6.19          0.994        0.056
  YS02001779           JUNCTION        6.13          0.680        0.000
  YS02001882           JUNCTION        1.79          0.636        0.194
  YS02001884           JUNCTION        1.81          0.676        0.194
  YS02001759           JUNCTION        6.20          1.098        0.112
  YS02001887           JUNCTION        1.87          0.764        0.186
  YS02001890           JUNCTION        1.89          0.760        0.000
  YS02001898           JUNCTION        1.76          0.534        0.206
  YS02001901           JUNCTION        1.84          0.679        0.191
  YS02001904           JUNCTION        1.82          0.642        0.208
  YS02001907           JUNCTION        2.41          0.950        0.000
  YS02001910           JUNCTION        1.93          0.823        0.277
  YS02001915           JUNCTION        1.78          0.664        0.336
  YS02001918           JUNCTION        1.62          0.412        0.398
  YS02001619           JUNCTION        6.09          0.597        0.013
  YS02001629           JUNCTION        6.08          0.470        0.000
  YS02001641           JUNCTION        6.18          0.936        0.164
  YS02001644           JUNCTION        6.18          0.920        0.000
  YS02001652           JUNCTION        6.15          0.973        0.157
  YS02001655           JUNCTION        6.10          0.882        0.318
  YS02001920           JUNCTION        1.65          0.514        0.626
  YS02001923           JUNCTION        0.01          0.089        0.731
  YS02001926           JUNCTION        0.01          0.135        0.765
  YS02001658           JUNCTION        6.05          0.726        0.574
  YS02001661           JUNCTION        0.10          0.803        0.587
  YS02001622           JUNCTION        6.10          0.586        0.034
  YS02001633           JUNCTION        6.17          0.930        0.130
  YS02001649           JUNCTION        6.19          1.050        0.000
  YS02001757           JUNCTION        6.23          1.201        0.009
  YS02001895           JUNCTION        1.77          0.567        0.183
  YS02001625           JUNCTION        6.16          0.780        0.000
  YS02163301           JUNCTION        6.17          0.889        0.141
  YS02163601           JUNCTION        6.20          0.991        0.089
  YS02164001           JUNCTION        6.17          0.924        0.176
  YS02001647           JUNCTION        6.15          0.801        0.099
  YS02006553           JUNCTION        2.47          0.971        0.219
  YS02006561           JUNCTION        1.64          0.280        0.870
  YS02006556           JUNCTION        2.10          0.896        0.454
  YS02006558           JUNCTION        2.08          0.879        0.521
  YS02001783           JUNCTION        1.89          0.664        0.936
  YS02001784           JUNCTION        1.86          0.604        0.886
  YS02001786           JUNCTION        1.77          0.444        0.986
  YS02001788           JUNCTION        1.68          0.306        1.174
  YS02001790           JUNCTION        2.61          0.786        0.371
  YS02001791           JUNCTION        2.72          0.680        1.240
  YS02001793           JUNCTION        3.00          0.823        1.777
  
  
  *********************
  Node Flooding Summary
  *********************
  
  Flooding refers to all water that overflows a node, whether it ponds or not.
  --------------------------------------------------------------------------
                                                             Total   Maximum
                                 Maximum   Time of Max       Flood    Ponded
                        Hours       Rate    Occurrence      Volume     Depth
  Node                 Flooded       LPS   days hr:min    10^6 ltr    Meters
  --------------------------------------------------------------------------
  WS02006248              0.23     60.82      0  01:53       0.024     0.000
  WS02006249              0.69    221.09      0  02:30       0.204     0.000
  WS02006256              4.42    838.37      0  01:52       8.427     0.000
  YS02001779              3.73    765.02      0  02:52       4.113     0.000
  YS02001890              0.78    161.41      0  02:12       0.270     0.000
  YS02001907              1.51    715.45      0  02:16       2.617     0.000
  YS02001629              0.01     34.10      0  01:46       0.000     0.000
  YS02001644              5.85   1607.92      0  02:47      13.684     0.000
  YS02001649              0.19     65.68      0  02:52       0.025     0.000
  YS02001625              2.15    435.12      0  02:16       1.966     0.000
  JK-storage              0.58    476.42      0  04:33       0.489     0.000
  XR-storage              4.64    674.58      0  03:01       5.041     0.000
  
  
  **********************
  Storage Volume Summary
  **********************
  
  --------------------------------------------------------------------------------------------------
                         Average     Avg  Evap Exfil       Maximum     Max    Time of Max    Maximum
                          Volume    Pcnt  Pcnt  Pcnt        Volume    Pcnt     Occurrence    Outflow
  Storage Unit           1000 m3    Full  Loss  Loss       1000 m3    Full    days hr:min        LPS
  --------------------------------------------------------------------------------------------------
  JK-storage               0.150      51     0     0         0.291     100       0  04:31     983.00
  CC-storage               3.405      22     0     0         4.067      26       0  02:49     399.99
  XR-storage               0.851      92     0     0         0.926     100       0  02:09     380.00
  
  
  ***********************
  Outfall Loading Summary
  ***********************
  
  ---------------------------------------------------------------------------------------------------------------------------------
                         Flow       Avg       Max       Total         Total         Total         Total         Total         Total
                         Freq      Flow      Flow      Volume           COD            SS            TN            TP         NH4-N
  Outfall Node           Pcnt       LPS       LPS    10^6 ltr            kg            kg            kg            kg            kg
  ---------------------------------------------------------------------------------------------------------------------------------
  WSC                  100.00    775.92   1349.79      20.468      2522.342      4493.761       141.747        16.291        84.675
  ---------------------------------------------------------------------------------------------------------------------------------
  System               100.00    775.92   1349.79      20.468      2522.342      4493.761       141.747        16.291        84.675
  
  
  ********************
  Link Flow Summary
  ********************
  
  -----------------------------------------------------------------------------
                                 Maximum  Time of Max   Maximum    Max/    Max/
                                  |Flow|   Occurrence   |Veloc|    Full    Full
  Link                 Type          LPS  days hr:min     m/sec    Flow   Depth
  -----------------------------------------------------------------------------
  WS02003066WSF200     CONDUIT    957.35     0  01:55      3.01    0.16    0.32
  WS02006287WS02006284 CONDUIT    735.73     0  01:54      2.45    0.34    0.41
  WS02006284WS02006280 CONDUIT    736.10     0  01:54      2.68    0.31    0.38
  WS02006280WS02006229 CONDUIT    736.19     0  01:54      4.16    0.16    0.57
  WS02006229WS02006228 CONDUIT    935.21     0  01:52      1.86    3.10    1.00
  WS02006256WS02006235 CONDUIT    264.10     0  00:22      3.74    2.80    1.00
  WS02006253WS02006251 CONDUIT    167.73     0  01:51      0.72    0.50    1.00
  WS02006252WS02006251 CONDUIT    400.20     0  04:40      3.18    1.47    1.00
  WS02006251WS02006249 CONDUIT    466.03     0  02:30      1.21    1.34    1.00
  WS02006249WS02006248 CONDUIT    377.12     0  04:41      1.19    2.07    1.00
  WS02006248WS02006247 CONDUIT    372.17     0  04:41      1.17    0.81    1.00
  WS02006247WS02006245 CONDUIT    367.83     0  04:41      1.14    2.92    1.00
  WS02006245WS02006243 CONDUIT    362.14     0  04:41      1.19    1.07    1.00
  WS02006243WS02006242 CONDUIT    356.47     0  07:31      1.07    0.76    1.00
  WS02006242WS02006240 CONDUIT    352.61     0  07:31      1.01    1.40    1.00
  WS02006240WS02006239 CONDUIT    349.61     0  07:32      1.05    1.10    1.00
  WS02006239WS02006238 CONDUIT    348.22     0  07:32      0.94    1.11    1.00
  WS02006238WS02006235 CONDUIT    347.88     0  07:32      1.05    0.78    1.00
  WS02006235WS02006234 CONDUIT    508.66     0  03:33      1.32    5.37    1.00
  WS02006234WS02006232 CONDUIT    508.45     0  03:35      1.32    1.03    1.00
  WS02006232WS02006231 CONDUIT    508.45     0  03:35      1.32    1.07    1.00
  WS02006231WS02006230 CONDUIT    508.66     0  03:34      1.40    7.72    1.00
  WS02006230WS02006229 CONDUIT    518.88     0  03:34      1.35   11.55    1.00
  WS02006228WS02006109 CONDUIT    934.94     0  01:52      1.86    4.08    1.00
  WS02006116WS02004401 CONDUIT    968.39     0  01:52      1.23    1.33    1.00
  WS02006115WS02006116 CONDUIT    968.49     0  01:52      1.23    1.24    1.00
  WS02006113WS02006111 CONDUIT    936.55     0  01:53      2.61    1.12    1.00
  WS02006112WS02006115 CONDUIT    967.47     0  01:53      1.23    0.57    1.00
  WS02006111WS02006112 CONDUIT    937.41     0  01:53      1.86    0.45    1.00
  WS02006110WS02006113 CONDUIT    936.24     0  01:53      1.86    0.85    1.00
  WS02006109WS02006110 CONDUIT    936.45     0  01:53      1.86    1.80    1.00
  WS02004411WS02004412 CONDUIT    956.34     0  01:54      1.26    1.36    0.93
  WS02004401WS02004402 CONDUIT    970.85     0  01:53      1.24    1.17    1.00
  WS02004413WS02003067 CONDUIT    956.93     0  01:54      1.57    0.41    0.72
  WS02004412WS02004413 CONDUIT    956.72     0  01:54      1.24    0.64    0.96
  WS02004410WS02004411 CONDUIT    954.88     0  01:54      1.24    1.30    0.95
  WS02004409WS02004410 CONDUIT    956.58     0  01:53      1.24    1.24    0.97
  WS02004407WS02004409 CONDUIT    968.52     0  01:52      1.73    0.34    0.69
  WS02004406WS02004407 CONDUIT    972.02     0  01:52      1.65    0.43    0.70
  WS02004405WS02004406 CONDUIT    971.34     0  01:52      1.24    1.92    1.00
  WS02004404WS02004405 CONDUIT    971.04     0  01:52      1.24    9.51    1.00
  WS02004403WS02004404 CONDUIT    969.22     0  01:52      1.23    0.70    1.00
  WS02004402WS02004403 CONDUIT    968.66     0  01:52      1.23    1.39    1.00
  WS02004139WS02001211 CONDUIT    382.85     0  03:16      0.90    0.48    0.64
  WS02004138WS02004139 CONDUIT    394.13     0  00:00      3.62    0.08    0.47
  WS02003067WS02003066 CONDUIT    957.20     0  01:55      1.67    0.31    0.51
  WS02001213WS02003059 CONDUIT    399.10     0  03:16      0.89    0.66    0.88
  WS02001212WS02001213 CONDUIT    395.61     0  03:16      1.32    0.61    0.56
  WS02001211WS02001212 CONDUIT    393.06     0  03:16      0.78    0.30    0.72
  WS02003072WS02003073 CONDUIT   1347.39     0  02:01      1.97    2.91    0.58
  WS02003069WS02003072 CONDUIT   1347.06     0  02:01      1.82    0.65    0.62
  WS02003060WS02003069 CONDUIT   1346.70     0  02:00      2.03    0.53    0.57
  WS02003059WS02003060 CONDUIT    403.67     0  03:15      0.95    0.26    0.78
  HS02004901HS02004770 CONDUIT     36.84     0  01:52      0.10    0.14    0.54
  HS02004876HS02004881 CONDUIT    139.08     0  01:54      1.26    1.48    0.16
  HS02004870HS02004876 CONDUIT    112.62     0  01:54      0.85    0.07    0.19
  HS02004842HS02004848 CONDUIT     18.18     0  02:06      0.08    0.01    0.34
  HS02004837HS02004842 CONDUIT     18.64     0  02:07      0.42    0.01    0.35
  HS02004830HS02004837 CONDUIT     67.83     0  01:54      0.68    0.07    0.14
  HS02004824HS02004830 CONDUIT     68.05     0  01:56      0.62    0.09    0.18
  HS02004817HS02004824 CONDUIT    136.19     0  01:57      0.32    0.06    0.60
  HS02004770HS02004777 CONDUIT    189.68     0  01:52      0.49    0.35    0.55
  HS02004799HS02004480 CONDUIT    470.64     0  01:53      1.09    0.59    0.62
  HS02004792HS02004799 CONDUIT    430.88     0  01:53      1.22    0.26    0.50
  HS02004788HS02004792 CONDUIT    248.73     0  01:54      1.29    0.16    0.28
  HS02004785HS02004788 CONDUIT    189.53     0  01:53      0.92    1.43    0.30
  HS02004777HS02004785 CONDUIT    189.41     0  01:53      0.59    0.23    0.46
  HS02004480HS02004478 CONDUIT    554.38     0  01:53      1.59    2.33    0.50
  HS02004479HS02004480 CONDUIT     83.72     0  01:53      0.37    0.08    0.59
  HS02004862HS02004870 CONDUIT     86.18     0  01:55      0.82    0.09    0.15
  HS02004848HS02004852 CONDUIT     40.37     0  01:54      0.54    0.05    0.11
  HS02004856HS02004862 CONDUIT     60.18     0  01:54      0.61    0.06    0.14
  HS02004852HS02004856 CONDUIT     40.43     0  01:55      0.35    0.05    0.17
  HS02004802HS02004478 CONDUIT    184.71     0  01:57      0.53    0.16    0.50
  HS02004478WS02006287 CONDUIT    735.62     0  01:54      2.18    0.21    0.38
  HS02004817HS02004807 CONDUIT    136.98     0  01:57      0.26    0.08    0.77
  HS02004807HS02004802 CONDUIT    183.88     0  01:56      0.47    0.35    0.56
  YS02001759YS02001757 CONDUIT    876.24     0  01:56      1.12    0.62    1.00
  YS02001762YS02001759 CONDUIT    434.54     0  01:55      0.55    0.50    1.00
  YS02001765YS02001762 CONDUIT    435.13     0  01:55      0.55    0.41    1.00
  YS02001770YS02001767 CONDUIT    435.32     0  01:55      0.55    1.72    1.00
  YS02001774YS02001770 CONDUIT    765.01     0  02:52      0.97    0.49    1.00
  YS02001779YS02001774 CONDUIT    765.01     0  02:52      0.97    0.39    1.00
  YS02001649YS02001757 CONDUIT   1002.47     0  01:52      1.28    0.61    1.00
  YS02001767YS02001765 CONDUIT    435.45     0  01:55      0.55    0.55    1.00
  YS02006561YS02001783 CONDUIT   1069.61     0  01:52      2.14    0.55    1.00
  YS02001783YS02001784 CONDUIT   1070.48     0  01:52      2.13    1.48    1.00
  YS02001784YS02001785 CONDUIT   1072.04     0  01:52      2.13    2.49    1.00
  YS02001788YS02001790 CONDUIT   1069.05     0  01:52      2.44    0.79    1.00
  YS02001790YS02001791 CONDUIT   1069.06     0  01:52      2.91    1.16    1.00
  YS02001791YS02001793 CONDUIT   1069.61     0  01:52      5.76    0.46    1.00
  YS02001910YS02001907 CONDUIT    658.81     0  01:54      0.84    0.37    1.00
  YS02001786YS02001788 CONDUIT   1073.52     0  01:52      2.31    2.07    1.00
  YS02001915YS02001910 CONDUIT    658.58     0  01:54      0.84    0.33    1.00
  YS02001918YS02001915 CONDUIT    361.31     0  01:54      0.48    0.20    1.00
  YS02001923YS02001920 CONDUIT    355.94     0  01:54      0.82    0.16    1.00
  YS02001926YS02001923 CONDUIT    296.58     0  01:54      0.92    0.42    1.00
  YS02001929YS02001926 CONDUIT    235.51     0  01:54      0.98    0.11    0.96
  YS02001920YS02001918 CONDUIT    359.23     0  01:54      0.77    0.35    1.00
  YS02001629YS02163301 CONDUIT    225.22     0  01:45      0.29    0.28    1.00
  YS02001619YS02001622 CONDUIT    389.15     0  02:16      0.74    0.57    1.00
  YS02001622YS02001625 CONDUIT    388.79     0  02:16      0.50    0.21    1.00
  YS02001625YS02001629 CONDUIT    220.10     0  01:48      0.29    0.10    1.00
  YS02163301YS02001633 CONDUIT    226.84     0  01:45      0.29    0.21    1.00
  YS02163601YS02164001 CONDUIT    456.78     0  01:48      0.58    0.40    1.00
  YS02164001YS02001641 CONDUIT    457.40     0  01:48      0.58    0.62    1.00
  YS02001641YS02001644 CONDUIT    457.15     0  01:48      0.58    1.48    1.00
  YS02001647YS02001649 CONDUIT    846.70     0  02:56      1.08    0.45    1.00
  YS02006553YS02006556 CONDUIT    716.53     0  03:35      0.91    0.61    1.00
  YS02006556YS02006558 CONDUIT    716.37     0  03:35      0.91    0.57    1.00
  YSB6556YSB1171       CONDUIT     46.62     0  01:54      0.14    0.05    0.84
  YS02001907YS02006553 CONDUIT    716.41     0  03:35      0.80    0.84    1.00
  YS02006558YS02006561 CONDUIT   1084.18     0  01:52      3.83    2.40    1.00
  YS02001633YS02163601 CONDUIT    456.88     0  01:48      0.58    0.48    1.00
  YS02001644YS02001647 CONDUIT    846.70     0  02:56      1.08    0.50    1.00
  YS02001745YS02001748 CONDUIT    450.34     0  02:16      1.67    0.17    0.98
  YS02001748YS02001751 CONDUIT    450.76     0  02:16      1.21    0.23    1.00
  YS02001751YS02001754 CONDUIT    450.59     0  02:16      1.02    0.22    1.00
  YS02001754YS02001757 CONDUIT    450.60     0  02:16      0.57    0.18    1.00
  YS02001882YS02001884 CONDUIT     23.25     0  01:48      0.16    0.03    1.00
  YS02001884YS02001887 CONDUIT     46.57     0  01:48      0.12    0.06    1.00
  YS02001890YS02001895 CONDUIT    541.19     0  01:52      0.69    0.25    1.00
  YS02001895YS02001898 CONDUIT    539.98     0  01:52      0.69    0.94    1.00
  YS02001898YS02001901 CONDUIT    538.60     0  01:52      0.69    0.35    1.00
  YS02001901YS02001904 CONDUIT    539.14     0  01:52      0.69    0.84    1.00
  YS02001904YS02001907 CONDUIT    540.71     0  01:52      0.69    0.19    1.00
  YS02001887YS02001890 CONDUIT    677.53     0  02:13      0.86    1.16    1.00
  YS02001652YS02001649 CONDUIT    519.79     0  02:10      0.71    0.26    1.00
  YS02001655YS02001652 CONDUIT    517.12     0  02:10      1.09    0.25    1.00
  YS02001658YS02001655 CONDUIT    515.34     0  02:10      1.41    0.22    1.00
  YS02001661YS02001658 CONDUIT    517.57     0  02:10      1.78    0.20    1.00
  YS02001664YS02001661 CONDUIT    747.53     0  01:57      1.69    0.23    0.77
  YSB1154YSB6556       CONDUIT     46.64     0  01:52      0.15    0.08    0.75
  YSB1174YSB1171       CONDUIT     38.40     0  01:50      0.11    0.06    0.87
  YSB1171HS02004479    CONDUIT     83.75     0  01:53      0.54    0.06    0.70
  HS02004881HS02006253 CONDUIT    153.29     0  01:54      2.62    0.03    0.54
  YS02001793JiankangQianchi CONDUIT   1070.01     0  01:52     16.42    0.08    1.00
  YS02001757CaochengTiaoxuchi CONDUIT   2148.56     0  01:56      3.55    0.94    1.00
  WSF200WS02003060     CONDUIT    957.32     0  01:55      1.97    0.21    0.45
  1                    CONDUIT   1349.79     0  02:01      3.60    0.47    0.48
  CC-Pump-1            PUMP       200.00     0  03:30              1.00
  CC-Pump-2            PUMP       199.99     0  03:00              1.00
  JK-Pump-1            PUMP       300.00     0  01:50              1.00
  JK-Pump-2            PUMP       683.00     0  01:50              1.00
  XR-Pump-1            PUMP        95.00     0  00:00              1.00
  XR-Pump-2            PUMP        95.00     0  00:00              1.00
  XR-Pump-3            PUMP        95.00     0  00:00              1.00
  XR-Pump-4            PUMP        95.00     0  00:00              1.00
  
  
  ***************************
  Flow Classification Summary
  ***************************
  
  -------------------------------------------------------------------------------------
                      Adjusted    ---------- Fraction of Time in Flow Class ---------- 
                       /Actual         Up    Down  Sub   Sup   Up    Down  Norm  Inlet 
  Conduit               Length    Dry  Dry   Dry   Crit  Crit  Crit  Crit  Ltd   Ctrl  
  -------------------------------------------------------------------------------------
  WS02003066WSF200        1.00   0.01  0.05  0.00  0.00  0.94  0.00  0.00  0.52  0.00
  WS02006287WS02006284    1.00   0.03  0.01  0.00  0.63  0.33  0.00  0.00  0.63  0.00
  WS02006284WS02006280    1.00   0.04  0.00  0.00  0.00  0.00  0.00  0.96  0.00  0.00
  WS02006280WS02006229    1.00   0.04  0.00  0.00  0.02  0.04  0.00  0.90  0.03  0.00
  WS02006229WS02006228    1.00   0.00  0.00  0.00  1.00  0.00  0.00  0.00  0.00  0.00
  WS02006256WS02006235    1.00   0.01  0.00  0.00  0.99  0.00  0.00  0.00  0.00  0.00
  WS02006253WS02006251    1.00   0.01  0.02  0.00  0.96  0.00  0.01  0.00  0.00  0.00
  WS02006252WS02006251    1.00   0.09  0.00  0.00  0.11  0.00  0.80  0.00  0.00  0.00
  WS02006251WS02006249    1.00   0.00  0.00  0.00  1.00  0.00  0.00  0.00  0.21  0.00
  WS02006249WS02006248    1.00   0.00  0.00  0.00  0.91  0.00  0.09  0.00  0.00  0.00
  WS02006248WS02006247    1.00   0.00  0.00  0.00  0.98  0.00  0.00  0.01  0.12  0.00
  WS02006247WS02006245    1.00   0.01  0.00  0.00  0.97  0.00  0.00  0.02  0.00  0.00
  WS02006245WS02006243    1.00   0.01  0.00  0.00  0.94  0.00  0.00  0.05  0.00  0.00
  WS02006243WS02006242    1.00   0.01  0.00  0.00  0.99  0.00  0.00  0.00  0.20  0.00
  WS02006242WS02006240    1.00   0.01  0.00  0.00  0.98  0.00  0.00  0.00  0.00  0.00
  WS02006240WS02006239    1.00   0.01  0.00  0.00  0.96  0.00  0.00  0.03  0.01  0.00
  WS02006239WS02006238    1.00   0.01  0.00  0.00  0.99  0.00  0.00  0.00  0.07  0.00
  WS02006238WS02006235    1.00   0.01  0.00  0.00  0.99  0.00  0.00  0.00  0.00  0.00
  WS02006235WS02006234    1.00   0.01  0.00  0.00  0.97  0.00  0.02  0.00  0.00  0.00
  WS02006234WS02006232    1.00   0.01  0.00  0.00  0.99  0.00  0.00  0.00  0.02  0.00
  WS02006232WS02006231    1.00   0.01  0.00  0.00  0.99  0.00  0.00  0.00  0.00  0.00
  WS02006231WS02006230    1.00   0.01  0.00  0.00  0.67  0.00  0.31  0.00  0.00  0.00
  WS02006230WS02006229    1.00   0.00  0.00  0.00  0.99  0.00  0.00  0.01  0.00  0.00
  WS02006228WS02006109    1.00   0.00  0.00  0.00  1.00  0.00  0.00  0.00  0.00  0.00
  WS02006116WS02004401    1.00   0.02  0.00  0.00  0.98  0.00  0.00  0.00  0.00  0.00
  WS02006115WS02006116    1.00   0.02  0.00  0.00  0.98  0.00  0.00  0.00  0.00  0.00
  WS02006113WS02006111    1.00   0.01  0.00  0.00  0.08  0.91  0.00  0.00  0.16  0.00
  WS02006112WS02006115    1.00   0.02  0.00  0.00  0.98  0.00  0.00  0.00  0.00  0.00
  WS02006111WS02006112    1.00   0.02  0.00  0.00  0.98  0.00  0.00  0.00  0.78  0.00
  WS02006110WS02006113    1.00   0.00  0.01  0.00  0.99  0.00  0.00  0.00  0.00  0.00
  WS02006109WS02006110    1.00   0.00  0.00  0.00  0.99  0.00  0.00  0.00  0.00  0.00
  WS02004411WS02004412    1.00   0.03  0.00  0.00  0.97  0.00  0.00  0.00  0.00  0.00
  WS02004401WS02004402    1.00   0.02  0.00  0.00  0.98  0.00  0.00  0.00  0.00  0.00
  WS02004413WS02003067    1.00   0.03  0.01  0.00  0.00  0.00  0.96  0.00  0.00  0.00
  WS02004412WS02004413    1.00   0.03  0.00  0.00  0.97  0.00  0.00  0.00  0.01  0.00
  WS02004410WS02004411    1.00   0.03  0.00  0.00  0.97  0.00  0.00  0.00  0.01  0.00
  WS02004409WS02004410    1.00   0.03  0.00  0.00  0.97  0.00  0.00  0.00  0.04  0.00
  WS02004407WS02004409    1.00   0.03  0.00  0.00  0.97  0.00  0.00  0.00  0.90  0.00
  WS02004406WS02004407    1.00   0.00  0.03  0.00  0.97  0.00  0.00  0.00  0.00  0.00
  WS02004405WS02004406    1.00   0.00  0.00  0.00  1.00  0.00  0.00  0.00  0.04  0.00
  WS02004404WS02004405    1.00   0.00  0.00  0.00  1.00  0.00  0.00  0.00  0.00  0.00
  WS02004403WS02004404    1.00   0.00  0.02  0.00  0.98  0.00  0.00  0.00  0.00  0.00
  WS02004402WS02004403    1.00   0.02  0.00  0.00  0.98  0.00  0.00  0.00  0.00  0.00
  WS02004139WS02001211    1.00   0.00  0.00  0.00  1.00  0.00  0.00  0.00  0.00  0.00
  WS02004138WS02004139    1.00   0.00  0.00  0.00  1.00  0.00  0.00  0.00  1.00  0.00
  WS02003067WS02003066    1.00   0.04  0.01  0.00  0.95  0.00  0.00  0.00  0.00  0.00
  WS02001213WS02003059    1.00   0.00  0.00  0.00  1.00  0.00  0.00  0.00  0.00  0.00
  WS02001212WS02001213    1.00   0.00  0.00  0.00  0.93  0.00  0.06  0.00  0.00  0.00
  WS02001211WS02001212    1.00   0.00  0.00  0.00  1.00  0.00  0.00  0.00  0.00  0.00
  WS02003072WS02003073    1.00   0.00  0.00  0.00  0.00  0.00  0.00  1.00  0.00  0.00
  WS02003069WS02003072    1.00   0.00  0.00  0.00  1.00  0.00  0.00  0.00  0.09  0.00
  WS02003060WS02003069    1.00   0.00  0.00  0.00  0.99  0.01  0.00  0.00  0.07  0.00
  WS02003059WS02003060    1.00   0.00  0.00  0.00  1.00  0.00  0.00  0.00  0.00  0.00
  HS02004901HS02004770    1.00   0.04  0.00  0.00  0.96  0.00  0.00  0.00  0.00  0.00
  HS02004876HS02004881    1.00   0.00  0.00  0.00  0.90  0.10  0.00  0.00  0.00  0.00
  HS02004870HS02004876    1.00   0.00  0.00  0.00  1.00  0.00  0.00  0.00  0.95  0.00
  HS02004842HS02004848    1.00   0.00  0.04  0.00  0.96  0.00  0.00  0.00  0.56  0.00
  HS02004837HS02004842    1.00   0.00  0.00  0.00  1.00  0.00  0.00  0.00  0.11  0.00
  HS02004830HS02004837    1.00   0.00  0.00  0.00  1.00  0.00  0.00  0.00  0.99  0.00
  HS02004824HS02004830    1.00   0.00  0.00  0.00  1.00  0.00  0.00  0.00  0.03  0.00
  HS02004817HS02004824    1.00   0.00  0.00  0.00  1.00  0.00  0.00  0.00  0.92  0.00
  HS02004770HS02004777    1.00   0.00  0.04  0.00  0.96  0.00  0.00  0.00  0.02  0.00
  HS02004799HS02004480    1.00   0.00  0.01  0.00  0.96  0.00  0.03  0.00  0.00  0.00
  HS02004792HS02004799    1.00   0.00  0.00  0.00  1.00  0.00  0.00  0.00  0.98  0.00
  HS02004788HS02004792    1.00   0.00  0.00  0.00  1.00  0.00  0.00  0.00  0.98  0.00
  HS02004785HS02004788    1.00   0.00  0.00  0.00  1.00  0.00  0.00  0.00  0.00  0.00
  HS02004777HS02004785    1.00   0.00  0.00  0.00  1.00  0.00  0.00  0.00  0.11  0.00
  HS02004480HS02004478    1.00   0.04  0.00  0.00  0.69  0.00  0.00  0.27  0.00  0.00
  HS02004479HS02004480    1.00   0.01  0.00  0.00  0.99  0.00  0.00  0.00  0.11  0.00
  HS02004862HS02004870    1.00   0.00  0.00  0.00  1.00  0.00  0.00  0.00  0.03  0.00
  HS02004848HS02004852    1.00   0.04  0.00  0.00  0.96  0.00  0.00  0.00  0.79  0.00
  HS02004856HS02004862    1.00   0.00  0.04  0.00  0.96  0.00  0.00  0.00  0.84  0.00
  HS02004852HS02004856    1.00   0.04  0.00  0.00  0.96  0.00  0.00  0.00  0.77  0.00
  HS02004802HS02004478    1.00   0.04  0.00  0.00  0.96  0.00  0.00  0.00  0.02  0.00
  HS02004478WS02006287    1.00   0.04  0.00  0.00  0.75  0.21  0.00  0.00  0.62  0.00
  HS02004817HS02004807    1.00   0.00  0.04  0.00  0.96  0.00  0.00  0.00  0.01  0.00
  HS02004807HS02004802    1.00   0.04  0.00  0.00  0.96  0.00  0.00  0.00  0.00  0.00
  YS02001759YS02001757    1.00   0.00  0.00  0.00  1.00  0.00  0.00  0.00  0.15  0.00
  YS02001762YS02001759    1.00   0.00  0.00  0.00  1.00  0.00  0.00  0.00  0.02  0.00
  YS02001765YS02001762    1.00   0.00  0.00  0.00  1.00  0.00  0.00  0.00  0.13  0.00
  YS02001770YS02001767    1.00   0.00  0.00  0.00  1.00  0.00  0.00  0.00  0.00  0.00
  YS02001774YS02001770    1.00   0.00  0.04  0.00  0.96  0.00  0.00  0.00  0.02  0.00
  YS02001779YS02001774    1.00   0.00  0.00  0.00  1.00  0.00  0.00  0.00  0.17  0.00
  YS02001649YS02001757    1.00   0.00  0.00  0.00  1.00  0.00  0.00  0.00  0.15  0.00
  YS02001767YS02001765    1.00   0.00  0.00  0.00  1.00  0.00  0.00  0.00  0.00  0.00
  YS02006561YS02001783    1.00   0.05  0.00  0.00  0.41  0.55  0.00  0.00  0.45  0.00
  YS02001783YS02001784    1.00   0.00  0.05  0.00  0.95  0.00  0.00  0.00  0.00  0.00
  YS02001784YS02001785    1.00   0.00  0.00  0.00  1.00  0.00  0.00  0.00  0.16  0.00
  YS02001788YS02001790    1.00   0.00  0.00  0.00  0.45  0.55  0.00  0.00  0.35  0.00
  YS02001790YS02001791    1.00   0.00  0.00  0.00  0.41  0.59  0.00  0.00  0.41  0.00
  YS02001791YS02001793    1.00   0.00  0.00  0.00  0.45  0.55  0.00  0.00  0.02  0.00
  YS02001910YS02001907    1.00   0.00  0.00  0.00  0.99  0.00  0.00  0.01  0.12  0.00
  YS02001786YS02001788    1.00   0.00  0.00  0.00  0.43  0.57  0.00  0.00  0.00  0.00
  YS02001915YS02001910    1.00   0.00  0.00  0.00  0.99  0.01  0.00  0.00  0.13  0.00
  YS02001918YS02001915    1.00   0.00  0.00  0.00  0.99  0.00  0.00  0.00  0.50  0.00
  YS02001923YS02001920    1.00   0.00  0.00  0.00  1.00  0.00  0.00  0.00  0.74  0.00
  YS02001926YS02001923    1.00   0.00  0.02  0.00  0.22  0.00  0.76  0.00  0.00  0.00
  YS02001929YS02001926    1.00   0.00  0.04  0.00  0.96  0.00  0.00  0.00  0.65  0.00
  YS02001920YS02001918    1.00   0.00  0.00  0.00  1.00  0.00  0.00  0.00  0.00  0.00
  YS02001629YS02163301    1.00   0.04  0.00  0.00  0.96  0.00  0.00  0.00  0.00  0.00
  YS02001619YS02001622    1.00   0.04  0.00  0.00  0.96  0.00  0.00  0.00  0.00  0.00
  YS02001622YS02001625    1.00   0.04  0.00  0.00  0.96  0.00  0.00  0.00  0.03  0.00
  YS02001625YS02001629    1.00   0.04  0.01  0.00  0.94  0.00  0.01  0.00  0.00  0.00
  YS02163301YS02001633    1.00   0.00  0.04  0.00  0.96  0.00  0.00  0.00  0.00  0.00
  YS02163601YS02164001    1.00   0.00  0.02  0.00  0.98  0.00  0.00  0.00  0.00  0.00
  YS02164001YS02001641    1.00   0.00  0.02  0.00  0.98  0.00  0.00  0.00  0.06  0.00
  YS02001641YS02001644    1.00   0.00  0.00  0.00  1.00  0.00  0.00  0.00  0.00  0.00
  YS02001647YS02001649    1.00   0.00  0.04  0.00  0.96  0.00  0.00  0.00  0.01  0.00
  YS02006553YS02006556    1.00   0.00  0.00  0.00  1.00  0.00  0.00  0.00  0.03  0.00
  YS02006556YS02006558    1.00   0.00  0.00  0.00  1.00  0.00  0.00  0.00  0.00  0.00
  YSB6556YSB1171          1.00   0.01  0.02  0.00  0.97  0.00  0.00  0.00  0.00  0.00
  YS02001907YS02006553    1.00   0.00  0.01  0.00  0.99  0.00  0.00  0.00  0.00  0.00
  YS02006558YS02006561    1.00   0.05  0.00  0.00  0.22  0.74  0.00  0.00  0.43  0.00
  YS02001633YS02163601    1.00   0.00  0.00  0.00  1.00  0.00  0.00  0.00  0.15  0.00
  YS02001644YS02001647    1.00   0.00  0.04  0.00  0.96  0.00  0.00  0.00  0.00  0.00
  YS02001745YS02001748    1.00   0.00  0.00  0.00  0.93  0.00  0.00  0.07  0.01  0.00
  YS02001748YS02001751    1.00   0.00  0.00  0.00  0.98  0.02  0.00  0.00  0.14  0.00
  YS02001751YS02001754    1.00   0.00  0.00  0.00  0.95  0.00  0.00  0.05  0.01  0.00
  YS02001754YS02001757    1.00   0.00  0.00  0.00  1.00  0.00  0.00  0.00  0.17  0.00
  YS02001882YS02001884    1.00   0.04  0.00  0.00  0.96  0.00  0.00  0.00  0.00  0.00
  YS02001884YS02001887    1.00   0.02  0.01  0.00  0.97  0.00  0.00  0.00  0.00  0.00
  YS02001890YS02001895    1.00   0.00  0.04  0.00  0.96  0.00  0.00  0.00  0.00  0.00
  YS02001895YS02001898    1.00   0.04  0.00  0.00  0.95  0.00  0.01  0.00  0.00  0.00
  YS02001898YS02001901    1.00   0.04  0.00  0.00  0.96  0.00  0.00  0.00  0.01  0.00
  YS02001901YS02001904    1.00   0.04  0.00  0.00  0.96  0.00  0.00  0.00  0.00  0.00
  YS02001904YS02001907    1.00   0.00  0.04  0.00  0.96  0.00  0.00  0.00  0.00  0.00
  YS02001887YS02001890    1.00   0.00  0.00  0.00  0.99  0.00  0.01  0.00  0.00  0.00
  YS02001652YS02001649    1.00   0.00  0.00  0.00  1.00  0.00  0.00  0.00  0.15  0.00
  YS02001655YS02001652    1.00   0.00  0.00  0.00  0.95  0.00  0.00  0.05  0.01  0.00
  YS02001658YS02001655    1.00   0.00  0.04  0.00  0.94  0.02  0.00  0.00  0.02  0.00
  YS02001661YS02001658    1.00   0.04  0.00  0.00  0.93  0.04  0.00  0.00  0.01  0.00
  YS02001664YS02001661    1.00   0.04  0.00  0.00  0.94  0.03  0.00  0.00  0.10  0.00
  YSB1154YSB6556          1.00   0.03  0.00  0.00  0.97  0.00  0.00  0.00  0.01  0.00
  YSB1174YSB1171          1.00   0.01  0.01  0.00  0.97  0.00  0.00  0.00  0.00  0.00
  YSB1171HS02004479       1.00   0.01  0.00  0.00  0.99  0.00  0.00  0.00  0.10  0.00
  HS02004881HS02006253    1.00   0.01  0.00  0.00  0.58  0.03  0.00  0.37  0.46  0.00
  YS02001793JiankangQianchi    1.00   0.00  0.00  0.00  0.66  0.34  0.00  0.00  0.33  0.00
  YS02001757CaochengTiaoxuchi    1.00   0.00  0.06  0.00  0.91  0.03  0.00  0.00  0.00  0.00
  WSF200WS02003060        1.00   0.00  0.01  0.00  0.99  0.00  0.00  0.00  0.50  0.00
  1                       1.00   0.00  0.00  0.00  0.00  1.00  0.00  0.00  0.54  0.00
  
  
  *************************
  Conduit Surcharge Summary
  *************************
  
  ----------------------------------------------------------------------------
                                                           Hours        Hours 
                         --------- Hours Full --------   Above Full   Capacity
  Conduit                Both Ends  Upstream  Dnstream   Normal Flow   Limited
  ----------------------------------------------------------------------------
  WS02006229WS02006228        3.06      3.26      3.06      4.79         3.06
  WS02006256WS02006235        5.79      5.80      6.91      4.78         0.01
  WS02006253WS02006251        1.21      1.21      1.24      0.01         0.03
  WS02006252WS02006251        0.70      0.70      1.41      0.74         0.01
  WS02006251WS02006249        1.22      1.22      1.28      0.33         0.20
  WS02006249WS02006248        1.25      1.25      1.28      1.84         0.01
  WS02006248WS02006247        1.29      1.29      1.36      0.01         0.01
  WS02006247WS02006245        1.37      1.39      1.37      2.83         1.05
  WS02006245WS02006243        1.39      1.39      1.49      0.09         0.02
  WS02006243WS02006242        1.56      1.56      2.12      0.01         0.01
  WS02006242WS02006240        1.96      1.96      2.36      0.66         0.01
  WS02006240WS02006239        2.07      2.07      2.35      0.09         0.05
  WS02006239WS02006238        2.61      2.61      2.82      0.13         0.06
  WS02006238WS02006235        2.80      2.80      3.06      0.01         0.03
  WS02006235WS02006234        2.43      2.43      2.72      5.60         0.02
  WS02006234WS02006232        2.58      2.58      3.21      0.10         0.11
  WS02006232WS02006231        1.73      1.73      3.21      0.18         0.01
  WS02006231WS02006230        1.44      1.44      1.80      5.88         0.01
  WS02006230WS02006229        3.92      4.56      3.92      6.28         3.82
[...]
  YS02001779YS02001774        6.13      6.13      6.19      0.01         0.01
  YS02001649YS02001757        6.19      6.19      6.23      0.01         0.01
  YS02001767YS02001765        6.18      6.18      6.18      0.01         0.01
  YS02006561YS02001783        1.64      1.64      1.89      0.01         0.01
  YS02001783YS02001784        1.86      1.89      1.86      2.16         1.86
  YS02001784YS02001785        1.77      1.86      1.77      2.91         1.77
  YS02001788YS02001790        1.68      1.68      2.61      0.01         0.01
  YS02001790YS02001791        2.61      2.61      2.72      1.84         1.82
  YS02001791YS02001793        2.72      2.72      3.09      0.01         0.01
  YS02001910YS02001907        1.93      1.93      2.41      0.01         0.01
  YS02001786YS02001788        1.68      1.77      1.68      2.55         1.68
  YS02001915YS02001910        1.78      1.78      1.93      0.01         0.01
  YS02001918YS02001915        1.62      1.62      1.78      0.01         0.01
  YS02001923YS02001920        1.47      1.47      1.65      0.01         0.01
  YS02001926YS02001923        0.01      0.01      0.01      0.01         0.01
  YS02001929YS02001926        0.01      0.01      0.01      0.01         0.01
  YS02001920YS02001918        1.62      1.62      1.65      0.01         0.01
  YS02001629YS02163301        6.16      6.16      6.17      0.01         0.01
  YS02001619YS02001622        6.09      6.09      6.10      0.01         0.02
  YS02001622YS02001625        6.10      6.10      6.16      0.01         0.01
  YS02001625YS02001629        6.08      6.08      6.16      0.01         0.01
  YS02163301YS02001633        6.17      6.17      6.18      0.01         0.01
  YS02163601YS02164001        6.17      6.17      6.20      0.01         0.01
  YS02164001YS02001641        6.17      6.17      6.18      0.01         0.02
  YS02001641YS02001644        6.18      6.18      6.18      2.38         2.35
  YS02001647YS02001649        6.15      6.15      6.19      0.01         0.01
  YS02006553YS02006556        2.10      2.10      2.47      0.01         0.01
  YS02006556YS02006558        2.22      2.22      2.53      0.01         0.01
  YSB6556YSB1171              0.01      0.01      0.30      0.01         0.01
  YS02001907YS02006553        2.93      2.93      3.12      0.01         0.01
  YS02006558YS02006561        1.74      2.08      1.74      2.78         1.74
  YS02001633YS02163601        6.17      6.17      6.20      0.01         0.01
  YS02001644YS02001647        6.15      6.15      6.18      0.01         0.01
  YS02001745YS02001748        0.01      0.01      6.04      0.01         0.01
  YS02001748YS02001751        6.05      6.05      6.09      0.01         0.01
  YS02001751YS02001754        6.09      6.09      6.14      0.01         0.01
  YS02001754YS02001757        6.15      6.15      6.23      0.01         0.01
  YS02001882YS02001884        1.79      1.79      1.81      0.01         0.01
  YS02001884YS02001887        1.85      1.85      1.87      0.01         0.01
  YS02001890YS02001895        1.77      1.77      1.94      0.01         0.01
  YS02001895YS02001898        1.76      1.76      1.77      0.01         0.01
  YS02001898YS02001901        1.77      1.77      1.84      0.01         0.01
  YS02001901YS02001904        1.82      1.82      1.84      0.01         0.01
  YS02001904YS02001907        1.82      1.82      2.48      0.01         0.01
  YS02001887YS02001890        1.89      1.89      1.91      0.52         0.01
  YS02001652YS02001649        6.16      6.16      6.19      0.01         0.01
  YS02001655YS02001652        6.10      6.10      6.15      0.01         0.01
  YS02001658YS02001655        6.05      6.05      6.10      0.01         0.01
  YS02001661YS02001658        0.08      0.08      6.05      0.01         0.01
  YS02001664YS02001661        0.01      0.01      2.04      0.01         0.01
  HS02004881HS02006253        0.01      0.01      0.74      0.01         0.01
  YS02001793JiankangQianchi        3.00      3.00      4.79      0.01         0.01
  YS02001757CaochengTiaoxuchi        5.75      5.75      6.23      0.01         0.01
  
  
  ***************
  Pumping Summary
  ***************
  
  ---------------------------------------------------------------------------------------------------------
                                                  Min       Avg       Max     Total     Power    % Time Off
                        Percent   Number of      Flow      Flow      Flow    Volume     Usage    Pump Curve
  Pump                 Utilized   Start-Ups       LPS       LPS       LPS  10^6 ltr     Kw-hr    Low   High
  ---------------------------------------------------------------------------------------------------------
  CC-Pump-1               55.31           7      0.00    124.85    200.00     1.800      1.33    0.0    0.0
  CC-Pump-2               25.52           6      0.00     98.25    199.99     0.720      0.70    0.0    0.0
  JK-Pump-1               65.95           4      0.00    234.86    300.00     4.313     55.19    0.0    0.0
  JK-Pump-2               61.71           4      0.00    438.40    683.00     7.861     93.40    0.0   97.3
  XR-Pump-1              100.00           1      0.00     95.00     95.00     2.679     22.90    0.0    0.0
  XR-Pump-2               97.87           2      0.00     93.57     95.00     2.508     19.24    0.0    0.0
  XR-Pump-3               97.87           2      0.00     93.57     95.00     2.508     19.24    0.0    0.0
  XR-Pump-4               97.87           2      0.00     93.57     95.00     2.508     19.24    0.0    0.0
  
  
  ***************************
  Link Pollutant Load Summary
  ***************************
  
  ------------------------------------------------------------------------------------------
                                 COD            SS            TN            TP         NH4-N
  Link                            kg            kg            kg            kg            kg
  ------------------------------------------------------------------------------------------
  WS02003066WSF200          1014.344      1955.396        24.719         2.096        12.797
  WS02006287WS02006284       438.079       854.519        12.586         1.181         6.763
  WS02006284WS02006280       438.578       855.317        12.634         1.187         6.793
  WS02006280WS02006229       438.573       855.341        12.632         1.187         6.791
  WS02006229WS02006228      1012.694      1952.922        24.205         2.022        12.463
  WS02006256WS02006235       259.685       488.997         5.492         0.414         2.740
  WS02006253WS02006251        87.193       175.437         1.791         0.128         0.870
  WS02006252WS02006251       270.770       520.340         5.124         0.352         2.462
  WS02006251WS02006249       348.322       677.298         6.751         0.470         3.258
  WS02006249WS02006248       320.889       621.783         6.225         0.433         3.005
  WS02006248WS02006247       317.844       615.197         6.172         0.430         2.980
  WS02006247WS02006245       318.492       616.522         6.185         0.431         2.986
  WS02006245WS02006243       319.084       617.815         6.197         0.432         2.992
  WS02006243WS02006242       320.638       620.788         6.233         0.434         3.010
  WS02006242WS02006240       321.415       622.065         6.253         0.436         3.021
  WS02006240WS02006239       322.780       624.205         6.300         0.441         3.047
  WS02006239WS02006238       324.385       626.541         6.363         0.447         3.082
  WS02006238WS02006235       325.263       627.739         6.395         0.450         3.101
  WS02006235WS02006234       576.314      1101.709        11.636         0.841         5.705
  WS02006234WS02006232       575.949      1101.016        11.630         0.841         5.702
  WS02006232WS02006231       575.528      1100.233        11.622         0.841         5.699
  WS02006231WS02006230       575.598      1100.422        11.624         0.841         5.700
  WS02006230WS02006229       576.199      1101.457        11.650         0.844         5.715
  WS02006228WS02006109      1011.541      1950.791        24.166         2.018        12.441
  WS02006116WS02004401      1029.141      1983.292        25.041         2.121        12.959
  WS02006115WS02006116      1030.935      1986.656        25.086         2.125        12.982
  WS02006113WS02006111      1017.305      1959.523        24.875         2.109        12.890
  WS02006112WS02006115      1032.332      1989.229        25.131         2.129        13.007
  WS02006111WS02006112      1016.569      1958.104        24.852         2.107        12.877
  WS02006110WS02006113      1017.724      1960.233        24.893         2.111        12.900
  WS02006109WS02006110      1018.909      1962.291        24.952         2.118        12.935
  WS02004411WS02004412      1017.635      1961.491        24.827         2.107        12.857
  WS02004401WS02004402      1027.493      1980.237        24.994         2.116        12.933
  WS02004413WS02003067      1014.927      1956.538        24.731         2.097        12.803
  WS02004412WS02004413      1016.424      1959.251        24.790         2.104        12.837
  WS02004410WS02004411      1018.681      1963.447        24.856         2.110        12.872
  WS02004409WS02004410      1019.791      1965.512        24.888         2.113        12.890
  WS02004407WS02004409      1020.763      1967.338        24.911         2.114        12.901
  WS02004406WS02004407      1021.101      1967.997        24.912         2.114        12.901
  WS02004405WS02004406      1023.029      1971.517        24.983         2.121        12.942
  WS02004404WS02004405      1024.631      1974.625        24.994         2.120        12.943
  WS02004403WS02004404      1024.430      1974.541        24.910         2.109        12.888
  WS02004402WS02004403      1025.828      1977.131        24.951         2.113        12.911
  WS02004139WS02001211      1366.692      2315.853       102.599        12.377        62.822
  WS02004138WS02004139      1372.651      2325.925       103.037        12.430        63.090
  WS02003067WS02003066      1014.536      1955.762        24.725         2.097        12.800
  WS02001213WS02003059      1400.512      2368.810       106.133        12.824        65.044
  WS02001212WS02001213      1409.037      2383.088       106.795        12.904        65.451
  WS02001211WS02001212      1411.195      2386.613       106.982        12.927        65.567
  WS02003072WS02003073      2515.145      4483.295       140.821        16.171        84.086
  WS02003069WS02003072      2520.339      4491.795       141.266        16.226        84.362
  WS02003060WS02003069      2522.853      4496.202       141.412        16.243        84.449
  WS02003059WS02003060      1397.607      2363.824       105.939        12.801        64.926
  HS02004901HS02004770        19.398        38.440         0.369         0.028         0.174
  HS02004876HS02004881        64.840       131.150         1.382         0.100         0.674
  HS02004870HS02004876        49.300        99.616         1.094         0.080         0.537
  HS02004842HS02004848         9.278        18.136         0.191         0.013         0.089
  HS02004837HS02004842        13.927        25.527         0.662         0.072         0.384
  HS02004830HS02004837        81.309       145.733         4.858         0.568         2.931
  HS02004824HS02004830        82.102       147.037         4.931         0.577         2.976
  HS02004817HS02004824       118.565       221.806         5.667         0.624         3.333
  HS02004770HS02004777        73.683       147.823         1.507         0.104         0.700
  HS02004799HS02004480       235.081       460.634         5.679         0.484         2.882
  HS02004792HS02004799       214.142       417.329         5.330         0.464         2.722
  HS02004788HS02004792       116.315       227.340         3.333         0.303         1.756
  HS02004785HS02004788        75.101       150.089         1.654         0.123         0.793
  HS02004777HS02004785        74.431       149.016         1.592         0.115         0.755
  HS02004480HS02004478       294.419       579.913         6.704         0.559         3.370
  HS02004479HS02004480        62.982       125.165         1.336         0.113         0.681
  HS02004862HS02004870        37.531        74.847         0.862         0.066         0.425
  HS02004848HS02004852        15.822        31.381         0.320         0.022         0.149
  HS02004856HS02004862        25.851        52.197         0.514         0.035         0.242
  HS02004852HS02004856        15.835        31.404         0.320         0.022         0.149
  HS02004802HS02004478       144.595       276.108         5.948         0.629         3.432
  HS02004478WS02006287       438.229       854.736        12.603         1.183         6.773
  HS02004817HS02004807       117.201       219.655         5.526         0.607         3.245
  HS02004807HS02004802       144.757       276.356         5.979         0.633         3.453
  YS02001759YS02001757       412.395       780.619         8.044         0.564         3.921
  YS02001762YS02001759       241.488       456.026         4.878         0.344         2.395
  YS02001765YS02001762       243.496       461.107         4.933         0.349         2.425
  YS02001770YS02001767       248.811       474.699         4.906         0.337         2.389
  YS02001774YS02001770       477.489       933.640         9.231         0.621         4.469
  YS02001779YS02001774       477.002       932.769         9.301         0.632         4.518
  YS02001649YS02001757       460.604       863.011         9.152         0.627         4.413
  YS02001767YS02001765       246.237       467.610         5.002         0.355         2.461
  YS02006561YS02001783      1272.771      2403.555        26.218         1.935        12.972
  YS02001783YS02001784      1272.656      2403.369        26.213         1.935        12.970
  YS02001784YS02001785      1280.023      2415.189        26.926         2.024        13.416
  YS02001788YS02001790      1280.573      2416.058        26.997         2.033        13.461
  YS02001790YS02001791      1281.557      2417.630        27.096         2.046        13.523
  YS02001791YS02001793      1281.406      2417.345        27.091         2.045        13.520
  YS02001910YS02001907       563.991      1065.043        12.699         0.936         6.406
  YS02001786YS02001788      1280.235      2415.551        26.954         2.028        13.433
  YS02001915YS02001910       564.077      1065.178        12.656         0.929         6.377
  YS02001918YS02001915       276.337       500.993         6.811         0.585         3.577
  YS02001923YS02001920       252.125       459.986         4.801         0.340         2.332
  YS02001926YS02001923       249.264       454.949         4.683         0.328         2.265
  YS02001929YS02001926       247.553       451.966         4.609         0.320         2.222
  YS02001920YS02001918       273.001       493.879         6.732         0.580         3.537
  YS02001629YS02163301        89.559       159.085         1.892         0.124         0.887
  YS02001619YS02001622       259.370       485.214         5.243         0.348         2.461
  YS02001622YS02001625       258.423       483.733         5.219         0.346         2.450
  YS02001625YS02001629        86.648       153.307         1.847         0.120         0.864
  YS02163301YS02001633        94.384       168.549         1.968         0.131         0.925
  YS02163601YS02164001       529.143       976.727        10.167         0.735         4.887
  YS02164001YS02001641       529.044       976.549        10.154         0.733         4.879
  YS02001641YS02001644       530.065       978.260        10.166         0.734         4.884
  YS02001647YS02001649       618.246      1162.321        12.279         0.852         5.877
  YS02006553YS02006556       791.809      1476.600        16.787         1.270         8.403
  YS02006556YS02006558       791.973      1476.902        16.752         1.265         8.380
  YSB6556YSB1171              36.519        72.730         0.718         0.058         0.359
  YS02001907YS02006553       791.814      1476.618        16.815         1.274         8.422
  YS02006558YS02006561      1272.762      2403.535        26.217         1.935        12.972
  YS02001633YS02163601       529.731       977.655        10.144         0.731         4.869
  YS02001644YS02001647       625.604      1176.460        12.392         0.861         5.929
  YS02001745YS02001748       354.021       679.885         6.988         0.437         3.357
  YS02001748YS02001751       353.332       678.719         6.995         0.440         3.365
  YS02001751YS02001754       352.426       677.230         6.981         0.440         3.360
  YS02001754YS02001757       353.263       678.489         7.148         0.462         3.467
  YS02001882YS02001884         3.324         5.870         0.064         0.005         0.032
  YS02001884YS02001887         7.464        13.481         0.141         0.011         0.070
  YS02001890YS02001895       615.458      1176.755        11.373         0.859         5.549
  YS02001895YS02001898       615.329      1176.610        11.367         0.859         5.546
  YS02001898YS02001901       615.096      1176.177        11.362         0.858         5.543
  YS02001901YS02001904       615.022      1176.086        11.372         0.860         5.550
  YS02001904YS02001907       615.306      1176.496        11.429         0.867         5.587
  YS02001887YS02001890       669.216      1284.278        12.355         0.936         6.032
  YS02001652YS02001649       311.933       592.427         6.190         0.448         2.909
  YS02001655YS02001652       312.621       593.538         6.209         0.449         2.918
  YS02001658YS02001655       312.320       593.063         6.128         0.438         2.865
  YS02001661YS02001658       313.034       594.232         6.145         0.439         2.872
  YS02001664YS02001661       325.282       613.808         6.435         0.459         3.005
  YSB1154YSB6556              36.099        72.065         0.671         0.053         0.330
  YSB1174YSB1171              24.947        50.011         0.489         0.039         0.242
  YSB1171HS02004479           62.903       125.020         1.341         0.114         0.685
  HS02004881HS02006253        73.233       148.618         1.535         0.110         0.748
  YS02001793JiankangQianchi      1281.685      2417.830        27.081         2.043        13.512
  YS02001757CaochengTiaoxuchi       665.637      1264.056        12.887         0.884         6.215
  WSF200WS02003060          1014.135      1954.959        24.720         2.097        12.798
  1                         2522.342      4493.761       141.747        16.291        84.675
  CC-Pump-1                  191.322       367.166         3.628         0.249         1.744
  CC-Pump-2                   79.089       152.448         1.487         0.102         0.714
  JK-Pump-1                  366.499       696.089         7.566         0.564         3.753
  JK-Pump-2                  777.430      1488.586        15.725         1.161         7.763
  XR-Pump-1                  373.091       629.427        28.616         3.464        17.557
  XR-Pump-2                  334.339       567.426        24.898         3.000        15.234
  XR-Pump-3                  334.339       567.426        24.898         3.000        15.234
  XR-Pump-4                  334.339       567.426        24.898         3.000        15.234
  

  Analysis begun on:  Fri Jul 16 02:33:34 2021
  Analysis ended on:  Fri Jul 16 02:33:37 2021
  Total elapsed time: 00:00:03