
  EPA STORM WATER MANAGEMENT MODEL - VERSION 5.1 (Build 5.3.0.dev0)
  --------------------------------------------------------------

  WARNING 04: minimum elevation drop used for Conduit WS02004404WS02004405
  WARNING 03: negative offset ignored for Link YS02001904YS02001907
  
  *********************************************************
  NOTE: The summary statistics displayed in this report are
  based on results found at every computational time step,  
  not just on results from each reporting time step.
  *********************************************************
  
  ****************
  Analysis Options
  ****************
  Flow Units ............... LPS
  Process Models:
    Rainfall/Runoff ........ YES
    RDII ................... NO
    Snowmelt ............... NO
    Groundwater ............ NO
    Flow Routing ........... YES
    Ponding Allowed ........ NO
    Water Quality .......... YES
  Infiltration Method ...... HORTON
  Flow Routing Method ...... DYNWAVE
  Surcharge Method ......... EXTRAN
  Starting Date ............ 08/28/2015 08:00:00
  Ending Date .............. 08/28/2015 15:50:00
  Antecedent Dry Days ...... 8.0
  Report Time Step ......... 00:01:00
  Wet Time Step ............ 00:01:00
  Dry Time Step ............ 00:01:00
  Routing Time Step ........ 5.00 sec
  Variable Time Step ....... YES
  Maximum Trials ........... 8
  Number of Threads ........ 4
  Head Tolerance ........... 0.001500 m
  
  
  **************************        Volume         Depth
  Runoff Quantity Continuity     hectare-m            mm
  **************************     ---------       -------
  Total Precipitation ......         7.641        16.729
  Evaporation Loss .........         0.000         0.000
  Infiltration Loss ........         1.184         2.592
  Surface Runoff ...........         5.481        12.000
  Final Storage ............         0.977         2.139
  Continuity Error (%) .....        -0.016
  
  
  **************************           COD            SS            TN            TP         NH4-N
  Runoff Quality Continuity             kg            kg            kg            kg            kg
  **************************    ----------    ----------    ----------    ----------    ----------
  Initial Buildup ..........     41378.656     70582.865      1804.177       168.684      1032.807
  Surface Buildup ..........        30.344        63.217         2.449         0.220         1.402
  Wet Deposition ...........         0.000         0.000         0.000         0.000         0.000
  Sweeping Removal .........         0.000         0.000         0.000         0.000         0.000
  Infiltration Loss ........       127.934       247.015         2.452         0.174         1.174
  BMP Removal ..............         0.000         0.000         0.000         0.000         0.000
  Surface Runoff ...........      5553.100     10632.121       107.101         7.411        51.076
  Remaining Buildup ........     35725.917     59762.998      1697.031       161.316       981.940
  Continuity Error (%) .....         0.005         0.006         0.002         0.002         0.002
  
  
  **************************        Volume        Volume
  Flow Routing Continuity        hectare-m      10^6 ltr
  **************************     ---------     ---------
  Dry Weather Inflow .......         0.616         6.165
  Wet Weather Inflow .......         5.479        54.792
  Groundwater Inflow .......         0.000         0.000
  RDII Inflow ..............         0.000         0.000
  External Inflow ..........         0.102         1.024
  External Outflow .........         2.045        20.447
  Flooding Loss ............         3.697        36.968
  Evaporation Loss .........         0.000         0.000
  Exfiltration Loss ........         0.000         0.000
  Initial Stored Volume ....         0.076         0.761
  Final Stored Volume ......         0.651         6.515
  Continuity Error (%) .....        -1.895
  
  
  **************************           COD            SS            TN            TP         NH4-N
  Quality Routing Continuity            kg            kg            kg            kg            kg
  **************************    ----------    ----------    ----------    ----------    ----------
  Dry Weather Inflow .......      1541.201      2465.922       147.955        18.494        92.472
  Wet Weather Inflow .......      5552.049     10630.253       107.079         7.410        51.066
  Groundwater Inflow .......         0.000         0.000         0.000         0.000         0.000
  RDII Inflow ..............         0.000         0.000         0.000         0.000         0.000
  External Inflow ..........       183.418       293.469        17.608         2.201        11.005
  External Outflow .........      2524.520      4500.194       141.280        16.223        84.358
  Flooding Loss ............      4025.940      7612.019       102.459         8.905        53.719
  Exfiltration Loss ........         0.000         0.000         0.000         0.000         0.000
  Mass Reacted .............         0.000         0.000         0.000         0.000         0.000
  Initial Stored Mass ......         0.000         0.000         0.000         0.000         0.000
  Final Stored Mass ........       609.823      1083.633        25.379         2.667        14.582
  Continuity Error (%) .....         1.599         1.447         1.293         1.105         1.219
  
  
  *************************
  Highest Continuity Errors
  *************************
  Node HS02004842 (10.96%)
  Node JK-storage (-9.73%)
  Node YS02001884 (9.20%)
  Node HS02004817 (2.13%)
  Node YSB1171 (1.97%)
  
  
  ***************************
  Time-Step Critical Elements
  ***************************
  Link WS02006252WS02006251 (61.45%)
  Link WS02006280WS02006229 (9.41%)
  Link WS02006238WS02006235 (8.45%)
  Link WS02004404WS02004405 (3.78%)
  Link YS02001661YS02001658 (3.73%)
  
  
  ********************************
  Highest Flow Instability Indexes
  ********************************
  Link WS02006113WS02006111 (41)
  Link YS02163601YS02164001 (29)
  Link YS02163301YS02001633 (28)
  Link YS02001629YS02163301 (28)
  Link YS02001619YS02001622 (27)
  
  
  *************************
  Routing Time Step Summary
  *************************
  Minimum Time Step           :     0.06 sec
  Average Time Step           :     1.23 sec
  Maximum Time Step           :     5.00 sec
  Percent in Steady State     :    -0.00
  Average Iterations per Step :     3.69
  Percent Not Converging      :    13.88
  
  
  ***************************
  Subcatchment Runoff Summary
  ***************************
  
  ------------------------------------------------------------------------------------------------------------------------------
                            Total      Total      Total      Total     Imperv       Perv      Total       Total     Peak  Runoff
                           Precip      Runon       Evap      Infil     Runoff     Runoff     Runoff      Runoff   Runoff   Coeff
  Subcatchment                 mm         mm         mm         mm         mm         mm         mm    10^6 ltr      LPS
  ------------------------------------------------------------------------------------------------------------------------------
  sub0                      16.73       0.00       0.00       0.71      15.51       0.47      15.98        0.01     3.87   0.955
  sub1                      16.73       0.00       0.00       1.18      14.80       0.66      15.46        0.10    26.74   0.924
  sub2                      16.73       0.00       0.00       4.79      10.46       1.40      11.85        0.11    25.81   0.708
  sub3                      16.73       0.00       0.00       5.01      10.42       1.18      11.60        0.26    56.97   0.693
  sub4                      16.73       0.00       0.00       1.28      14.64       0.56      15.20        0.32    66.74   0.909
  sub5                      16.73       0.00       0.00       0.73      15.46       0.44      15.91        0.18    46.91   0.951
  sub7                      16.73       0.00       0.00       0.93      15.16       0.58      15.74        0.05    14.85   0.941
  sub8                      16.73       0.00       0.00       0.94      15.15       0.57      15.72        0.10    27.42   0.940
  sub9                      16.73       0.00       0.00       0.94      15.15       0.57      15.72        0.08    20.52   0.940
  sub10                     16.73       0.00       0.00       0.83      15.30       0.50      15.81        0.17    46.04   0.945
  sub11                     16.73       0.00       0.00       0.83      15.32       0.51      15.83        0.18    50.62   0.947
  sub12                     16.73       0.00       0.00       1.34      14.51       0.83      15.34        0.13    39.22   0.917
  sub14                     16.73       0.00       0.00       0.94      15.15       0.57      15.72        0.15    40.40   0.939
  sub15                     16.73       0.00       0.00       3.54      11.65       1.48      13.13        0.23    57.86   0.785
  sub16                     16.73       0.00       0.00       3.72      11.17       1.80      12.97        0.14    37.34   0.776
  sub17                     16.73       0.00       0.00       3.62      11.33       1.73      13.07        0.11    30.57   0.781
  sub22                     16.73       0.00       0.00       5.27       9.49       1.92      11.42        0.72   183.11   0.683
  sub23                     16.73       0.00       0.00       4.37      10.50       1.82      12.32        0.59   153.57   0.736
  sub60                     16.73       0.00       0.00       1.74      12.78       0.27      13.05        3.96   446.24   0.780
  sub61                     16.73       0.00       0.00       2.46      12.72       0.38      13.11        4.04   542.53   0.784
  sub62                     16.73       0.00       0.00       1.06      13.91       0.27      14.19        4.36   558.01   0.848
  sub63                     16.73       0.00       0.00       4.39      11.06       0.46      11.52        3.49   496.40   0.689
  sub64                     16.73       0.00       0.00       2.23      12.28       0.28      12.56        3.82   424.95   0.751
  sub65                     16.73       0.00       0.00       1.91      12.51       0.27      12.77        3.93   431.32   0.764
  sub66                     16.73       0.00       0.00       4.54      10.46       0.31      10.78        3.31   388.44   0.644
  sub67                     16.73       0.00       0.00       1.01      14.45       0.32      14.78        4.56   675.76   0.883
  sub68                     16.73       0.00       0.00       1.95      13.33       0.39      13.71        4.22   589.75   0.820
  sub69                     16.73       0.00       0.00       2.00      13.62       0.51      14.12        3.30   542.07   0.844
  sub70                     16.73      14.42       0.00       8.47      19.01       2.12      21.13        4.84   534.50   0.678
  sub71                     16.73       0.00       0.00       1.08      13.65       0.25      13.90        3.28   394.68   0.831
  sub72                     16.73       0.00       0.00       1.02      11.50       0.15      11.65        2.37   206.66   0.697
  1                         16.73      20.58       0.00       1.37      22.38       7.20      29.58        6.95   612.18   0.793
  2                         16.73       0.00       0.00       3.02       4.04       3.18       7.22        2.89   331.58   0.431
  
  
  ****************************
  Subcatchment Washoff Summary
  ****************************
  
  ------------------------------------------------------------------------------------------
                                 COD            SS            TN            TP         NH4-N
  Subcatchment                    kg            kg            kg            kg            kg
  ------------------------------------------------------------------------------------------
  sub0                         3.641         7.161         0.064         0.005         0.031
  sub1                        15.670        31.767         0.296         0.021         0.143
  sub2                        10.304        20.454         0.214         0.015         0.099
  sub3                        25.293        49.815         0.517         0.036         0.240
  sub4                        36.168        74.260         0.714         0.044         0.344
  sub5                        35.763        71.366         0.649         0.050         0.316
  sub7                         7.894        16.212         0.150         0.010         0.073
  sub8                        11.755        24.726         0.234         0.014         0.113
  sub9                        10.113        20.966         0.196         0.013         0.095
  sub10                       29.347        59.341         0.545         0.040         0.265
  sub11                       28.395        58.052         0.536         0.037         0.260
  sub12                       24.463        49.072         0.450         0.034         0.218
  sub14                       21.697        44.543         0.414         0.028         0.200
  sub15                       29.696        58.821         0.572         0.042         0.270
  sub16                       19.246        38.050         0.367         0.028         0.174
  sub17                       17.687        34.653         0.330         0.026         0.156
  sub22                       95.915       186.896         1.820         0.139         0.857
  sub23                       54.382       109.539         1.141         0.076         0.527
  sub60                      353.947       679.509         6.988         0.437         3.357
  sub61                      439.695       840.113         8.188         0.570         3.952
  sub62                      449.790       873.119         8.744         0.564         4.209
  sub63                      328.186       618.356         6.505         0.463         3.037
  sub64                      450.924       835.563         8.299         0.611         3.976
  sub65                      460.537       856.688         8.527         0.617         4.090
  sub66                      259.427       485.147         5.248         0.348         2.463
  sub67                      667.181      1281.068        12.075         0.900         5.853
  sub68                      479.473       924.467         9.153         0.628         4.389
  sub69                      429.286       835.450         8.068         0.576         3.873
  sub70                      758.301      1478.311        15.194         1.074         7.173
  sub71                      296.268       580.620         6.027         0.356         2.890
  sub72                      247.759       452.374         4.612         0.320         2.223
  1                          576.917      1130.968        11.723         0.829         5.484
  2                           65.566       118.435         1.802         0.109         0.773
  ------------------------------------------------------------------------------------------
  System                    6740.687     12945.882       130.363         9.060        62.122
  
  
  ******************
  Node Depth Summary
  ******************
  
  ---------------------------------------------------------------------------------
                                 Average  Maximum  Maximum  Time of Max    Reported
                                   Depth    Depth      HGL   Occurrence   Max Depth
  Node                 Type       Meters   Meters   Meters  days hr:min      Meters
  ---------------------------------------------------------------------------------
  WS02001211           JUNCTION     0.77     0.85     5.69     0  02:02        0.85
  WS02001212           JUNCTION     0.48     0.58     5.64     0  02:02        0.58
  WS02001213           JUNCTION     0.72     0.86     5.62     0  02:02        0.86
  WS02003069           JUNCTION     0.52     0.72     5.31     0  02:01        0.72
  WS02003072           JUNCTION     0.58     0.77     5.14     0  02:01        0.77
  WS02003073           JUNCTION     0.35     0.48     4.55     0  02:02        0.48
  WS02003060           JUNCTION     0.46     0.64     5.57     0  02:00        0.64
  WS02003066           JUNCTION     0.25     0.39     5.94     0  01:55        0.39
  WS02003059           JUNCTION     0.77     0.91     5.60     0  02:01        0.91
  WS02003067           JUNCTION     0.60     0.83     6.15     0  01:54        0.83
  WS02004401           JUNCTION     0.73     1.32     7.32     0  01:52        1.30
  WS02004402           JUNCTION     0.76     1.30     7.26     0  01:52        1.28
  WS02004403           JUNCTION     0.77     1.27     7.20     0  01:52        1.24
  WS02004404           JUNCTION     0.84     1.32     7.17     0  01:52        1.28
  WS02004406           JUNCTION     0.84     1.21     7.04     0  01:52        1.18
  WS02004409           JUNCTION     0.54     0.98     6.75     0  01:55        0.98
  WS02004410           JUNCTION     0.56     0.97     6.69     0  01:55        0.96
  WS02004411           JUNCTION     0.57     0.94     6.62     0  01:55        0.94
  WS02004412           JUNCTION     0.58     0.92     6.56     0  01:55        0.92
  WS02004413           JUNCTION     0.74     1.03     6.50     0  01:54        1.03
  WS02004405           JUNCTION     0.84     1.29     7.14     0  01:52        1.25
  WS02006109           JUNCTION     0.84     1.76     8.38     0  01:53        1.75
  WS02006110           JUNCTION     0.81     1.55     8.13     0  01:52        1.54
  WS02006111           JUNCTION     0.26     1.02     7.72     0  01:52        0.97
  WS02006112           JUNCTION     0.91     1.67     7.55     0  01:52        1.64
  WS02006113           JUNCTION     0.38     1.06     7.95     0  01:52        1.02
  WS02006115           JUNCTION     0.63     1.32     7.46     0  01:52        1.30
  WS02006116           JUNCTION     0.71     1.36     7.40     0  01:52        1.33
  WS02006230           JUNCTION     0.85     1.98     8.73     0  01:53        1.97
  WS02006231           JUNCTION     0.59     1.62     8.74     0  01:53        1.60
  WS02006232           JUNCTION     0.73     1.71     8.75     0  01:53        1.68
  WS02006234           JUNCTION     0.67     1.59     8.75     0  01:53        1.58
  WS02006235           JUNCTION     0.70     1.60     8.77     0  01:53        1.58
  WS02006238           JUNCTION     0.73     1.62     8.76     0  01:53        1.60
  WS02006240           JUNCTION     0.62     1.45     8.74     0  01:53        1.44
  WS02006242           JUNCTION     0.67     1.46     8.72     0  01:53        1.45
  WS02006243           JUNCTION     0.55     1.30     8.72     0  01:53        1.29
  WS02006245           JUNCTION     0.52     1.23     8.71     0  01:53        1.22
  WS02006247           JUNCTION     0.53     1.20     8.70     0  01:52        1.20
  WS02006248           JUNCTION     0.47     1.10     8.69     0  01:50        1.10
  WS02006249           JUNCTION     0.48     1.09     8.69     0  01:50        1.09
  WS02006239           JUNCTION     0.68     1.54     8.75     0  01:53        1.52
  WS02006251           JUNCTION     0.46     1.66     9.33     0  03:38        1.18
  WS02006252           JUNCTION     0.28     1.24     9.48     0  03:38        0.72
  WS02006253           JUNCTION     0.49     1.73     9.37     0  03:38        1.23
  WS02006256           JUNCTION     1.79     2.35     9.28     0  00:48        2.35
  WS02004138           JUNCTION     0.19     0.20     7.45     0  00:00        0.19
  WS02004139           JUNCTION     0.72     0.79     5.70     0  02:02        0.79
  WS02004407           JUNCTION     0.24     0.40     6.72     0  01:53        0.40
  WS02006228           JUNCTION     0.85     1.94     8.60     0  01:53        1.93
  WS02006229           JUNCTION     0.84     2.02     8.72     0  01:53        2.01
  WS02006280           JUNCTION     0.08     0.33     8.60     0  01:52        0.31
  WS02006284           JUNCTION     0.38     0.66     9.06     0  01:54        0.66
  WS02006287           JUNCTION     0.11     0.40     9.36     0  01:54        0.40
  WSF200               JUNCTION     0.24     0.44     5.68     0  01:55        0.44
  HS02004901           JUNCTION     0.14     0.38    10.21     0  01:53        0.38
  HS02004881           JUNCTION     0.01     0.05     9.08     0  01:54        0.05
  HS02004876           JUNCTION     0.05     0.17     9.20     0  01:54        0.17
  HS02004870           JUNCTION     0.02     0.10     9.38     0  01:54        0.10
  HS02004862           JUNCTION     0.02     0.11     9.50     0  01:55        0.11
  HS02004856           JUNCTION     0.08     0.15     9.58     0  01:54        0.15
  HS02004852           JUNCTION     0.01     0.08     9.59     0  01:54        0.08
  HS02004848           JUNCTION     0.01     0.07     9.67     0  01:54        0.07
  HS02004842           JUNCTION     0.34     0.40     9.67     0  01:54        0.40
  HS02004837           JUNCTION     0.03     0.09     9.67     0  01:54        0.09
  HS02004830           JUNCTION     0.04     0.11     9.58     0  01:55        0.11
  HS02004824           JUNCTION     0.03     0.15     9.55     0  01:54        0.15
  HS02004817           JUNCTION     0.45     0.71     9.56     0  01:54        0.71
  HS02004807           JUNCTION     0.14     0.38     9.55     0  01:55        0.38
  HS02004802           JUNCTION     0.17     0.41     9.54     0  01:55        0.41
  HS02004799           JUNCTION     0.14     0.48     9.69     0  01:53        0.48
  HS02004792           JUNCTION     0.04     0.22     9.75     0  01:53        0.22
  HS02004788           JUNCTION     0.03     0.16    10.06     0  01:54        0.16
  HS02004785           JUNCTION     0.06     0.25    10.15     0  01:53        0.25
  HS02004777           JUNCTION     0.16     0.40    10.20     0  01:53        0.40
  HS02004770           JUNCTION     0.13     0.37    10.21     0  01:53        0.37
  HS02004480           JUNCTION     0.10     0.39     9.64     0  01:53        0.39
  HS02004479           JUNCTION     0.13     0.43     9.64     0  01:53        0.43
  HS02004478           JUNCTION     0.07     0.29     9.52     0  01:54        0.29
  YS02001745           JUNCTION     0.79     0.98     8.49     0  02:40        0.98
  YS02001748           JUNCTION     1.19     1.42     8.49     0  02:40        1.41
  YS02001751           JUNCTION     1.38     1.61     8.49     0  02:40        1.60
  YS02001754           JUNCTION     1.63     1.87     8.48     0  02:40        1.86
  YS02001762           JUNCTION     1.83     2.07     8.47     0  02:41        2.06
  YS02001765           JUNCTION     1.78     2.01     8.46     0  02:39        2.00
  YS02001767           JUNCTION     1.74     1.96     8.45     0  02:41        1.95
  YS02001770           JUNCTION     1.74     1.95     8.44     0  02:39        1.94
  YS02001774           JUNCTION     1.80     2.01     8.44     0  01:42        1.99
  YS02001779           JUNCTION     1.54     1.68     8.37     0  01:42        1.68
  YS02001882           JUNCTION     0.68     1.66     8.37     0  01:50        1.63
  YS02001884           JUNCTION     0.77     1.75     8.37     0  01:50        1.74
  YS02001759           JUNCTION     1.86     2.11     8.47     0  02:40        2.10
  YS02001887           JUNCTION     0.85     1.81     8.35     0  02:13        1.81
  YS02001890           JUNCTION     0.88     1.81     8.32     0  01:50        1.81
  YS02001898           JUNCTION     0.64     1.57     8.31     0  01:51        1.56
  YS02001901           JUNCTION     0.76     1.68     8.29     0  01:51        1.67
  YS02001904           JUNCTION     0.74     1.64     8.27     0  01:51        1.63
  YS02001907           JUNCTION     1.07     1.96     8.25     0  01:51        1.96
  YS02001910           JUNCTION     0.86     1.85     8.36     0  01:51        1.81
  YS02001915           JUNCTION     0.66     1.83     8.54     0  01:48        1.66
  YS02001918           JUNCTION     0.40     1.51     8.58     0  01:51        1.43
  YS02001619           JUNCTION     1.33     1.57     8.50     0  01:45        1.48
  YS02001629           JUNCTION     1.68     1.85     8.40     0  01:46        1.84
  YS02001641           JUNCTION     1.78     1.93     8.37     0  01:53        1.93
  YS02001644           JUNCTION     1.78     1.92     8.35     0  01:48        1.92
  YS02001652           JUNCTION     1.64     1.96     8.55     0  04:25        1.87
  YS02001655           JUNCTION     1.40     1.80     8.65     0  04:31        1.66
  YS02001920           JUNCTION     0.50     1.61     8.61     0  01:51        1.56
  YS02001923           JUNCTION     0.33     1.45     8.71     0  01:51        1.37
  YS02001926           JUNCTION     0.36     1.34     8.79     0  01:51        1.24
  YS02001929           JUNCTION     0.22     1.12     8.81     0  01:51        1.04
  YS02001658           JUNCTION     1.13     1.63     8.77     0  04:31        1.45
  YS02001661           JUNCTION     0.89     1.60     9.00     0  04:25        1.36
  YS02001664           JUNCTION     0.41     0.57     8.49     0  04:13        0.55
  YS02001622           JUNCTION     1.35     1.57     8.47     0  01:45        1.50
  YS02001633           JUNCTION     1.77     1.95     8.40     0  01:58        1.95
  YS02001649           JUNCTION     1.83     2.05     8.44     0  02:29        2.05
  YS02001757           JUNCTION     1.96     2.20     8.46     0  02:40        2.20
  YS02001895           JUNCTION     0.64     1.57     8.31     0  02:03        1.56
  YS02001625           JUNCTION     1.63     1.78     8.38     0  01:45        1.78
  YS02163301           JUNCTION     1.71     1.89     8.40     0  01:46        1.88
  YS02163601           JUNCTION     1.82     1.99     8.39     0  02:15        1.98
  YS02164001           JUNCTION     1.76     1.92     8.38     0  01:49        1.92
  YS02001647           JUNCTION     1.62     1.80     8.41     0  04:31        1.79
  YSB1154              JUNCTION     0.27     0.58     9.64     0  01:53        0.58
  YSB6556              JUNCTION     0.17     0.47     9.64     0  01:53        0.47
  YSB1174              JUNCTION     0.22     0.53     9.64     0  01:53        0.53
  YSB1171              JUNCTION     0.43     0.74     9.64     0  01:53        0.74
  YS02006553           JUNCTION     1.07     1.97     8.26     0  02:16        1.96
  YS02006561           JUNCTION     0.40     1.13     7.79     0  01:48        1.08
  YS02006556           JUNCTION     1.03     1.93     8.24     0  02:12        1.93
  YS02006558           JUNCTION     1.08     1.98     8.24     0  02:13        1.97
  YS02001783           JUNCTION     0.63     1.73     7.87     0  01:45        1.47
  YS02001784           JUNCTION     0.64     1.56     7.63     0  01:45        1.41
  YS02001786           JUNCTION     0.56     1.35     7.38     0  01:45        1.26
  YS02001788           JUNCTION     0.48     1.38     7.36     0  01:45        1.13
  YS02001790           JUNCTION     0.59     1.96     7.60     0  04:35        1.29
  YS02001791           JUNCTION     0.55     2.55     8.02     0  04:35        1.28
  YS02001793           JUNCTION     0.76     3.54     8.37     0  04:33        1.81
  WSC                  OUTFALL      0.35     0.48     1.15     0  02:02        0.48
  JK-storage           STORAGE      2.94     5.80     6.60     0  01:44        5.80
  CC-storage           STORAGE      1.22     1.47     8.47     0  02:35        1.47
  XR-storage           STORAGE      7.06     7.72     5.72     0  02:07        7.72
  
  
  *******************
  Node Inflow Summary
  *******************
  
  -------------------------------------------------------------------------------------------------
                                  Maximum  Maximum                  Lateral       Total        Flow
                                  Lateral    Total  Time of Max      Inflow      Inflow     Balance
                                   Inflow   Inflow   Occurrence      Volume      Volume       Error
  Node                 Type           LPS      LPS  days hr:min    10^6 ltr    10^6 ltr     Percent
  -------------------------------------------------------------------------------------------------
  WS02001211           JUNCTION      7.35   390.25     0  02:28       0.207        10.3       0.387
  WS02001212           JUNCTION      0.00   393.02     0  02:28           0        10.3       0.233
  WS02001213           JUNCTION      0.00   395.56     0  02:27           0        10.2       0.270
  WS02003069           JUNCTION      0.32  1344.75     0  02:01     0.00902        20.5       0.157
  WS02003072           JUNCTION      0.00  1344.75     0  02:01           0        20.5       0.191
  WS02003073           JUNCTION      1.82  1346.91     0  02:01      0.0514        20.5       0.218
  WS02003060           JUNCTION     16.53  1344.30     0  02:00       0.466        20.5       0.149
  WS02003066           JUNCTION      0.00   958.13     0  01:55           0        9.89       0.040
  WS02003059           JUNCTION      0.00   398.65     0  02:27           0        10.2       0.386
  WS02003067           JUNCTION      0.00   957.79     0  01:55           0         9.9       0.085
  WS02004401           JUNCTION      0.00   970.28     0  01:53           0        10.1       0.185
  WS02004402           JUNCTION      0.00   970.79     0  01:53           0        10.1       0.176
  WS02004403           JUNCTION      0.00   971.42     0  01:53           0        10.1       0.164
  WS02004404           JUNCTION      0.16   972.04     0  01:53     0.00457        10.1       0.125
  WS02004406           JUNCTION      0.00   973.01     0  01:53           0          10       0.305
  WS02004409           JUNCTION      0.00   971.15     0  01:53           0        9.99       0.136
  WS02004410           JUNCTION      0.00   958.85     0  01:54           0        9.98       0.157
  WS02004411           JUNCTION      0.00   956.14     0  01:55           0        9.96       0.164
  WS02004412           JUNCTION      0.00   957.59     0  01:55           0        9.95       0.181
  WS02004413           JUNCTION      0.00   957.79     0  01:55           0        9.93       0.277
  WS02004405           JUNCTION      0.04   973.62     0  01:53     0.00107          10       0.188
  WS02006109           JUNCTION      1.23   939.02     0  01:53      0.0347        10.1       0.186
  WS02006110           JUNCTION      0.00   939.02     0  01:53           0        10.1       0.178
  WS02006111           JUNCTION      0.00   938.79     0  01:54           0        10.1       0.024
  WS02006112           JUNCTION     30.57   969.11     0  01:53       0.112        10.2       0.265
  WS02006113           JUNCTION      0.00   938.95     0  01:53           0        10.1       0.087
  WS02006115           JUNCTION      0.00   969.38     0  01:53           0        10.1       0.172
  WS02006116           JUNCTION      0.00   970.06     0  01:53           0        10.1       0.143
  WS02006230           JUNCTION     10.28   532.26     0  05:50        0.29           7       0.131
  WS02006231           JUNCTION      0.00   521.91     0  05:51           0        6.72       0.118
  WS02006232           JUNCTION      0.00   522.03     0  05:51           0        6.73       0.205
  WS02006234           JUNCTION      0.00   522.03     0  05:51           0        6.73       0.083
  WS02006235           JUNCTION      0.00   522.72     0  05:49           0        6.85       0.137
  WS02006238           JUNCTION      0.00   351.52     0  04:42           0        3.15       0.127
  WS02006240           JUNCTION      0.00   358.34     0  04:41           0        3.09       0.332
  WS02006242           JUNCTION      0.00   362.79     0  04:41           0        3.06       0.442
  WS02006243           JUNCTION      0.00   367.89     0  04:41           0        3.03       0.195
  WS02006245           JUNCTION      0.00   372.10     0  04:40           0        3.02       0.296
  WS02006247           JUNCTION      0.00   376.47     0  04:40           0        3.01       0.228
  WS02006248           JUNCTION      0.00   380.88     0  04:40           0        3.02       0.094
  WS02006249           JUNCTION      0.00   408.89     0  03:40           0        3.19       0.310
  WS02006239           JUNCTION      0.00   353.29     0  04:41           0        3.12       0.175
  WS02006251           JUNCTION      0.08   409.07     0  03:40     0.00217        3.25       0.241
  WS02006252           JUNCTION      0.00   400.00     0  03:40           0        2.58       0.017
  WS02006253           JUNCTION      3.87   156.77     0  01:54      0.0129       0.668       0.503
  WS02006256           JUNCTION      0.00   983.00     0  02:00           0        11.8       0.013
  WS02004138           JUNCTION      0.00   380.00     0  00:00           0        10.1       0.066
  WS02004139           JUNCTION      0.32   394.45     0  00:00     0.00905        10.1       0.445
  WS02004407           JUNCTION      0.00   973.71     0  01:53           0          10       0.060
  WS02006228           JUNCTION      0.00   937.99     0  01:53           0        10.1       0.131
  WS02006229           JUNCTION      0.00   991.78     0  01:52           0        10.1       0.126
  WS02006280           JUNCTION      0.00   736.09     0  01:54           0        3.11       0.009
  WS02006284           JUNCTION      0.10   735.83     0  01:54      0.0027        3.11       0.020
  WS02006287           JUNCTION      0.00   735.63     0  01:54           0        3.11       0.024
  WSF200               JUNCTION      0.00   958.21     0  01:56           0        9.89       0.035
  HS02004901           JUNCTION     37.34    37.34     0  01:51       0.136       0.136       1.311
  HS02004881           JUNCTION     14.85   153.29     0  01:54       0.053       0.601       0.091
  HS02004876           JUNCTION     26.74   139.06     0  01:54       0.103       0.549       0.099
  HS02004870           JUNCTION     27.42   112.65     0  01:54         0.1       0.446       0.025
  HS02004862           JUNCTION     26.01    86.18     0  01:54       0.116       0.346       0.050
  HS02004856           JUNCTION     20.52    60.23     0  01:54      0.0756       0.231       0.627
  HS02004852           JUNCTION      0.00    40.37     0  01:54           0       0.155       0.036
  HS02004848           JUNCTION     56.97    56.97     0  01:56       0.261       0.261       0.019
  HS02004842           JUNCTION      0.00    18.18     0  02:06           0       0.119      12.306
  HS02004837           JUNCTION     52.39    67.87     0  01:54       0.353       0.459       0.177
  HS02004830           JUNCTION      0.15    67.98     0  01:54     0.00423       0.449       0.275
  HS02004824           JUNCTION     66.79   134.68     0  01:56       0.318       0.767       0.071
  HS02004817           JUNCTION      0.60   136.85     0  01:57      0.0169       0.783       2.175
  HS02004807           JUNCTION     50.62   184.01     0  01:55       0.184       0.952       0.460
  HS02004802           JUNCTION      0.00   183.91     0  01:56           0        0.95       0.419
  HS02004799           JUNCTION     40.40   470.75     0  01:53        0.15        1.87       0.159
  HS02004792           JUNCTION    183.39   430.98     0  01:53       0.729        1.72       0.024
  HS02004788           JUNCTION     59.53   248.80     0  01:53       0.273       0.991       0.039
  HS02004785           JUNCTION      0.15   189.56     0  01:53     0.00423        0.72       0.070
  HS02004777           JUNCTION      0.03   189.71     0  01:52    0.000846        0.72       0.728
  HS02004770           JUNCTION    153.57   190.38     0  01:52       0.587       0.722       0.429
  HS02004480           JUNCTION      0.00   554.34     0  01:53           0        2.18       0.044
  HS02004479           JUNCTION      0.00    83.75     0  01:53           0       0.323       0.229
  HS02004478           JUNCTION      0.00   735.58     0  01:54           0        3.11       0.010
  YS02001745           JUNCTION    446.25   446.25     0  02:16        3.95        3.95       0.287
  YS02001748           JUNCTION      0.04   450.47     0  02:16     0.00127        3.94       0.583
  YS02001751           JUNCTION      0.01   449.97     0  02:16     0.00031        3.92       0.612
  YS02001754           JUNCTION      0.26   450.93     0  02:16     0.00733        3.91       0.636
  YS02001762           JUNCTION      0.00   434.17     0  01:55           0        2.61       0.818
  YS02001765           JUNCTION      0.00   435.00     0  01:55           0        2.61       0.942
  YS02001767           JUNCTION      0.54   434.78     0  01:55      0.0151        2.63       1.375
  YS02001770           JUNCTION    558.16   788.47     0  02:40        4.36        5.56       0.566
  YS02001774           JUNCTION      0.00   788.82     0  02:39           0        4.11       0.610
  YS02001779           JUNCTION      0.01   788.69     0  02:39    0.000141        4.08       0.386
  YS02001882           JUNCTION      0.00    56.05     0  01:48           0      0.0289       8.343
  YS02001884           JUNCTION      0.00    63.83     0  01:47           0      0.0661      10.128
  YS02001759           JUNCTION    542.57   877.19     0  01:56        4.04        5.42       0.424
  YS02001887           JUNCTION    676.21   677.51     0  02:13        4.57         4.6       0.186
  YS02001890           JUNCTION      0.00   677.41     0  02:14           0        4.56       0.207
  YS02001898           JUNCTION      0.00   524.49     0  01:51           0        4.27       0.060
  YS02001901           JUNCTION      0.00   526.10     0  01:51           0        4.27       0.167
  YS02001904           JUNCTION      0.00   527.28     0  01:48           0        4.26       0.149
  YS02001907           JUNCTION      0.00  1177.77     0  01:52           0        9.98       0.240
  YS02001910           JUNCTION      0.00   663.68     0  01:52           0        5.74       0.204
  YS02001915           JUNCTION    394.70   663.16     0  01:52        3.28        5.79       0.101
  YS02001918           JUNCTION      0.00   381.42     0  01:52           0        2.54       0.055
  YS02001619           JUNCTION    388.44   388.44     0  02:16         3.3         3.3       0.370
  YS02001629           JUNCTION      0.00   218.11     0  01:48           0        1.43       2.052
  YS02001641           JUNCTION      0.00   455.79     0  01:48           0        5.09       0.413
  YS02001644           JUNCTION    424.99  1620.35     0  02:31        3.82        14.8       0.181
  YS02001652           JUNCTION      0.00   517.57     0  02:10           0        3.43       0.674
  YS02001655           JUNCTION      0.15   516.09     0  02:10     0.00434        3.46       0.730
  YS02001920           JUNCTION      2.87   380.53     0  01:52      0.0809        2.52       0.115
  YS02001923           JUNCTION      0.04   309.57     0  01:53     0.00106        2.42       0.040
  YS02001926           JUNCTION      0.05   370.31     0  01:51     0.00147        2.39       0.100
  YS02001929           JUNCTION    206.66   206.66     0  03:01        2.37        2.38       0.025
  YS02001658           JUNCTION      0.00   518.27     0  02:10           0        3.48       0.695
  YS02001661           JUNCTION      0.00   748.40     0  01:57           0        3.73       0.031
  YS02001664           JUNCTION    496.40   496.40     0  02:16        3.49        3.73       0.162
  YS02001622           JUNCTION      0.00   389.19     0  02:16           0        3.29       0.970
  YS02001633           JUNCTION    431.52   456.37     0  01:48        3.93        5.24       0.610
  YS02001649           JUNCTION      0.00  1017.33     0  02:39           0        8.05       0.462
  YS02001757           JUNCTION      0.00  2145.61     0  01:55           0        10.3       0.891
  YS02001895           JUNCTION      0.00   523.48     0  01:51           0        4.27       0.124
  YS02001625           JUNCTION      0.00   437.43     0  02:15           0        3.34       1.184
  YS02163301           JUNCTION      0.00   223.45     0  01:45           0        1.42       1.708
  YS02163601           JUNCTION      0.11   456.39     0  01:48      0.0031        5.11       0.594
  YS02164001           JUNCTION      0.00   456.24     0  01:48           0        5.09       0.393
  YS02001647           JUNCTION      0.00   846.70     0  02:52           0        7.08       0.401
  YSB1154              JUNCTION     46.91    46.91     0  01:52        0.18       0.181       0.806
  YSB6556              JUNCTION      0.00    46.63     0  01:52           0       0.182       0.696
  YSB1174              JUNCTION     39.22    39.22     0  01:50       0.134       0.134       0.962
  YSB1171              JUNCTION      0.00    84.01     0  01:52           0       0.322       2.011
  YS02006553           JUNCTION      0.00   717.82     0  03:35           0        7.29       0.212
  YS02006561           JUNCTION      0.00   982.75     0  02:15           0        11.5       0.008
  YS02006556           JUNCTION      0.00   717.88     0  03:35           0        7.29       0.151
  YS02006558           JUNCTION    590.63   983.76     0  02:12        4.24        11.5       0.042
  YS02001783           JUNCTION      0.00   982.77     0  02:15           0        11.5       0.021
  YS02001784           JUNCTION      1.06   983.88     0  02:14      0.0299        11.5       0.031
  YS02001786           JUNCTION      0.06   983.77     0  02:15     0.00159        11.5       0.030
  YS02001788           JUNCTION      0.07   983.69     0  02:15       0.002        11.5       0.018
  YS02001790           JUNCTION      0.15   984.51     0  02:15     0.00437        11.5       0.019
  YS02001791           JUNCTION      0.00   984.15     0  02:15           0        11.5       0.008
  YS02001793           JUNCTION      0.00   984.97     0  02:15           0        11.5      -0.013
  WSC                  OUTFALL       0.00  1347.53     0  02:02           0        20.4       0.000
  JK-storage           STORAGE       0.00   984.39     0  02:15           0        11.6      -8.865
  CC-storage           STORAGE       0.00  2147.98     0  01:55           0        6.67       0.973
  XR-storage           STORAGE    1054.62  1054.62     0  03:01        15.5        16.1      -0.005
  
  
  **********************
  Node Surcharge Summary
  **********************
  
  Surcharging occurs when water rises above the top of the highest conduit.
  ---------------------------------------------------------------------
                                               Max. Height   Min. Depth
                                   Hours       Above Crown    Below Rim
  Node                 Type      Surcharged         Meters       Meters
  ---------------------------------------------------------------------
  WS02004401           JUNCTION        0.68          0.316        1.344
  WS02004402           JUNCTION        0.72          0.303        1.437
  WS02004403           JUNCTION        0.73          0.272        1.758
  WS02004404           JUNCTION        1.16          0.318        2.462
  WS02004406           JUNCTION        0.98          0.206        2.244
  WS02004413           JUNCTION        0.42          0.031        2.169
  WS02004405           JUNCTION        1.06          0.285        2.515
  WS02006109           JUNCTION        3.47          0.942        0.878
  WS02006110           JUNCTION        2.12          0.636        1.214
  WS02006111           JUNCTION        0.34          0.206        1.664
  WS02006112           JUNCTION        2.41          0.667        1.013
  WS02006113           JUNCTION        0.37          0.261        1.669
  WS02006115           JUNCTION        0.58          0.315        1.935
  WS02006116           JUNCTION        0.60          0.295        1.995
  WS02006230           JUNCTION        1.60          0.904        0.666
  WS02006231           JUNCTION        2.15          0.910        0.620
  WS02006232           JUNCTION        3.28          1.010        0.470
  WS02006234           JUNCTION        2.80          0.873        0.367
  WS02006235           JUNCTION        2.97          0.894        0.396
  WS02006238           JUNCTION        3.01          0.897        0.533
  WS02006240           JUNCTION        2.33          0.736        0.654
  WS02006242           JUNCTION        2.40          0.726        0.094
  WS02006243           JUNCTION        1.91          0.586        0.184
  WS02006245           JUNCTION        1.73          0.516        0.334
  WS02006247           JUNCTION        1.72          0.493        0.267
  WS02006248           JUNCTION        1.43          0.380        0.000
  WS02006249           JUNCTION        1.49          0.390        0.000
  WS02006239           JUNCTION        2.61          0.803        0.487
  WS02006251           JUNCTION        0.46          0.634        0.546
  WS02006252           JUNCTION        1.57          0.843        0.257
  WS02006253           JUNCTION        0.71          0.687        1.793
  WS02006256           JUNCTION        7.08          2.050        0.000
  WS02006228           JUNCTION        3.43          1.114        1.086
  HS02004817           JUNCTION        0.15          0.010        1.730
  YS02001748           JUNCTION        6.04          0.336        0.854
  YS02001751           JUNCTION        6.08          0.609        0.591
  YS02001754           JUNCTION        6.14          0.821        0.329
  YS02001762           JUNCTION        6.19          1.066        0.084
  YS02001765           JUNCTION        6.18          1.013        0.087
  YS02001767           JUNCTION        6.18          0.965        0.065
  YS02001770           JUNCTION        6.18          0.916        0.004
  YS02001774           JUNCTION        6.19          1.014        0.036
  YS02001779           JUNCTION        6.13          0.680        0.000
  YS02001882           JUNCTION        1.80          0.658        0.172
  YS02001884           JUNCTION        1.82          0.690        0.180
  YS02001759           JUNCTION        6.20          1.106        0.104
  YS02001887           JUNCTION        1.87          0.764        0.186
  YS02001890           JUNCTION        1.89          0.760        0.000
  YS02001898           JUNCTION        1.77          0.543        0.197
  YS02001901           JUNCTION        1.85          0.680        0.190
  YS02001904           JUNCTION        1.83          0.638        0.212
  YS02001907           JUNCTION        2.38          0.950        0.000
  YS02001910           JUNCTION        1.93          0.853        0.247
  YS02001915           JUNCTION        1.80          0.826        0.174
  YS02001918           JUNCTION        1.65          0.513        0.297
  YS02001619           JUNCTION        6.09          0.573        0.037
  YS02001629           JUNCTION        6.08          0.470        0.000
  YS02001641           JUNCTION        6.18          0.935        0.165
  YS02001644           JUNCTION        6.19          0.920        0.000
  YS02001652           JUNCTION        6.15          0.928        0.202
  YS02001655           JUNCTION        6.10          0.801        0.399
  YS02001920           JUNCTION        1.68          0.606        0.534
  YS02001923           JUNCTION        0.01          0.236        0.584
  YS02001926           JUNCTION        0.01          0.343        0.557
  YS02001929           JUNCTION        0.01          0.116        0.664
  YS02001658           JUNCTION        6.05          0.631        0.669
  YS02001661           JUNCTION        0.21          0.530        0.860
  YS02001622           JUNCTION        6.10          0.569        0.051
  YS02001633           JUNCTION        6.17          0.929        0.131
  YS02001649           JUNCTION        6.19          1.050        0.000
  YS02001757           JUNCTION        6.23          1.204        0.006
  YS02001895           JUNCTION        1.78          0.567        0.183
  YS02001625           JUNCTION        6.16          0.780        0.000
  YS02163301           JUNCTION        6.17          0.886        0.144
  YS02163601           JUNCTION        6.20          0.989        0.091
  YS02164001           JUNCTION        6.17          0.920        0.180
  YS02001647           JUNCTION        6.15          0.797        0.103
  YS02006553           JUNCTION        2.47          0.971        0.219
  YS02006561           JUNCTION        1.69          0.327        0.823
  YS02006556           JUNCTION        2.11          0.894        0.456
  YS02006558           JUNCTION        2.08          0.877        0.523
  YS02001783           JUNCTION        1.93          0.930        0.670
  YS02001784           JUNCTION        1.91          0.759        0.731
  YS02001786           JUNCTION        1.85          0.552        0.878
  YS02001788           JUNCTION        1.80          0.580        0.900
  YS02001790           JUNCTION        2.57          1.157        0.000
  YS02001791           JUNCTION        2.66          1.753        0.167
  YS02001793           JUNCTION        2.92          2.540        0.060
  
  
  *********************
  Node Flooding Summary
  *********************
  
  Flooding refers to all water that overflows a node, whether it ponds or not.
  --------------------------------------------------------------------------
                                                             Total   Maximum
                                 Maximum   Time of Max       Flood    Ponded
                        Hours       Rate    Occurrence      Volume     Depth
  Node                 Flooded       LPS   days hr:min    10^6 ltr    Meters
  --------------------------------------------------------------------------
  WS02006248              0.22     65.65      0  01:54       0.022     0.000
  WS02006249              0.66    117.12      0  01:51       0.159     0.000
  WS02006256              4.14    828.75      0  02:00       7.997     0.000
  YS02001779              3.67    788.64      0  02:39       4.066     0.000
  YS02001890              0.82    160.41      0  02:12       0.273     0.000
  YS02001907              1.53    715.28      0  02:15       2.681     0.000
  YS02001629              0.01     19.71      0  01:46       0.000     0.000
  YS02001644              5.66   1620.35      0  02:31      13.653     0.000
  YS02001649              0.41    170.56      0  02:39       0.136     0.000
  YS02001625              2.14    437.29      0  02:15       1.968     0.000
  YS02001790              0.01    157.67      0  04:36       0.000     0.000
  JK-storage              0.77    573.86      0  01:49       0.917     0.000
  XR-storage              4.67    674.60      0  03:01       5.099     0.000
  
  
  **********************
  Storage Volume Summary
  **********************
  
  --------------------------------------------------------------------------------------------------
                         Average     Avg  Evap Exfil       Maximum     Max    Time of Max    Maximum
                          Volume    Pcnt  Pcnt  Pcnt        Volume    Pcnt     Occurrence    Outflow
  Storage Unit           1000 m3    Full  Loss  Loss       1000 m3    Full    days hr:min        LPS
  --------------------------------------------------------------------------------------------------
  JK-storage               0.148      51     0     0         0.291     100       0  01:44     983.00
  CC-storage               3.389      22     0     0         4.087      26       0  02:35     400.00
  XR-storage               0.847      91     0     0         0.926     100       0  02:07     380.00
  
  
  ***********************
  Outfall Loading Summary
  ***********************
  
  ---------------------------------------------------------------------------------------------------------------------------------
                         Flow       Avg       Max       Total         Total         Total         Total         Total         Total
                         Freq      Flow      Flow      Volume           COD            SS            TN            TP         NH4-N
  Outfall Node           Pcnt       LPS       LPS    10^6 ltr            kg            kg            kg            kg            kg
  ---------------------------------------------------------------------------------------------------------------------------------
  WSC                  100.00    783.20   1347.53      20.447      2524.674      4500.460       141.292        16.225        84.366
  ---------------------------------------------------------------------------------------------------------------------------------
  System               100.00    783.20   1347.53      20.447      2524.674      4500.460       141.292        16.225        84.366
  
  
  ********************
  Link Flow Summary
  ********************
  
  -----------------------------------------------------------------------------
                                 Maximum  Time of Max   Maximum    Max/    Max/
                                  |Flow|   Occurrence   |Veloc|    Full    Full
  Link                 Type          LPS  days hr:min     m/sec    Flow   Depth
  -----------------------------------------------------------------------------
  WS02003066WSF200     CONDUIT    958.21     0  01:56      3.01    0.16    0.33
  WS02006287WS02006284 CONDUIT    735.73     0  01:54      2.45    0.34    0.41
  WS02006284WS02006280 CONDUIT    736.09     0  01:54      2.68    0.31    0.38
  WS02006280WS02006229 CONDUIT    739.37     0  01:52      4.21    0.16    0.58
  WS02006229WS02006228 CONDUIT    937.99     0  01:53      1.87    3.11    1.00
  WS02006256WS02006235 CONDUIT    260.84     0  05:02      3.69    2.76    1.00
  WS02006253WS02006251 CONDUIT    170.15     0  01:51      0.74    0.51    1.00
  WS02006252WS02006251 CONDUIT    400.29     0  04:40      3.19    1.47    1.00
  WS02006251WS02006249 CONDUIT    408.89     0  03:40      1.10    1.18    1.00
  WS02006249WS02006248 CONDUIT    380.88     0  04:40      1.13    2.09    1.00
  WS02006248WS02006247 CONDUIT    376.47     0  04:40      1.10    0.82    1.00
  WS02006247WS02006245 CONDUIT    372.10     0  04:40      1.07    2.95    1.00
  WS02006245WS02006243 CONDUIT    367.89     0  04:41      1.08    1.09    1.00
  WS02006243WS02006242 CONDUIT    362.79     0  04:41      1.00    0.78    1.00
  WS02006242WS02006240 CONDUIT    358.34     0  04:41      0.97    1.42    1.00
  WS02006240WS02006239 CONDUIT    353.29     0  04:41      1.00    1.11    1.00
  WS02006239WS02006238 CONDUIT    351.52     0  04:42      0.95    1.12    1.00
  WS02006238WS02006235 CONDUIT    351.17     0  04:42      0.95    0.78    1.00
  WS02006235WS02006234 CONDUIT    522.03     0  05:51      1.36    5.51    1.00
  WS02006234WS02006232 CONDUIT    522.03     0  05:51      1.36    1.06    1.00
  WS02006232WS02006231 CONDUIT    521.91     0  05:51      1.36    1.09    1.00
  WS02006231WS02006230 CONDUIT    521.98     0  05:50      1.37    7.92    1.00
  WS02006230WS02006229 CONDUIT    531.94     0  05:51      1.38   11.84    1.00
  WS02006228WS02006109 CONDUIT    937.79     0  01:53      1.87    4.10    1.00
  WS02006116WS02004401 CONDUIT    970.28     0  01:53      1.24    1.34    1.00
  WS02006115WS02006116 CONDUIT    970.06     0  01:53      1.24    1.24    1.00
  WS02006113WS02006111 CONDUIT    938.79     0  01:54      2.63    1.13    1.00
  WS02006112WS02006115 CONDUIT    969.38     0  01:53      1.23    0.57    1.00
  WS02006111WS02006112 CONDUIT    939.11     0  01:53      1.87    0.45    1.00
  WS02006110WS02006113 CONDUIT    938.95     0  01:53      1.87    0.85    1.00
  WS02006109WS02006110 CONDUIT    939.02     0  01:53      1.87    1.81    1.00
  WS02004411WS02004412 CONDUIT    957.59     0  01:55      1.26    1.36    0.93
  WS02004401WS02004402 CONDUIT    970.79     0  01:53      1.24    1.17    1.00
  WS02004413WS02003067 CONDUIT    957.79     0  01:55      1.58    0.41    0.72
  WS02004412WS02004413 CONDUIT    957.79     0  01:55      1.24    0.64    0.96
  WS02004410WS02004411 CONDUIT    956.14     0  01:55      1.24    1.31    0.95
  WS02004409WS02004410 CONDUIT    958.85     0  01:54      1.24    1.24    0.97
  WS02004407WS02004409 CONDUIT    971.15     0  01:53      1.74    0.34    0.69
  WS02004406WS02004407 CONDUIT    973.71     0  01:53      1.65    0.44    0.70
  WS02004405WS02004406 CONDUIT    973.01     0  01:53      1.24    1.92    1.00
  WS02004404WS02004405 CONDUIT    973.58     0  01:53      1.24    9.54    1.00
  WS02004403WS02004404 CONDUIT    971.88     0  01:53      1.24    0.70    1.00
  WS02004402WS02004403 CONDUIT    971.42     0  01:53      1.24    1.40    1.00
  WS02004139WS02001211 CONDUIT    382.90     0  02:28      0.90    0.48    0.64
  WS02004138WS02004139 CONDUIT    394.13     0  00:00      3.62    0.08    0.47
  WS02003067WS02003066 CONDUIT    958.13     0  01:55      1.67    0.31    0.51
  WS02001213WS02003059 CONDUIT    398.65     0  02:27      0.89    0.66    0.88
  WS02001212WS02001213 CONDUIT    395.56     0  02:27      1.32    0.61    0.56
  WS02001211WS02001212 CONDUIT    393.02     0  02:28      0.78    0.30    0.72
  WS02003072WS02003073 CONDUIT   1345.09     0  02:01      1.97    2.91    0.58
  WS02003069WS02003072 CONDUIT   1344.75     0  02:01      1.82    0.65    0.62
  WS02003060WS02003069 CONDUIT   1344.43     0  02:01      2.03    0.53    0.57
  WS02003059WS02003060 CONDUIT    403.16     0  06:09      0.95    0.26    0.78
  HS02004901HS02004770 CONDUIT     36.83     0  01:52      0.10    0.14    0.54
  HS02004876HS02004881 CONDUIT    139.08     0  01:54      1.26    1.48    0.16
  HS02004870HS02004876 CONDUIT    112.62     0  01:54      0.85    0.07    0.19
  HS02004842HS02004848 CONDUIT     18.18     0  02:06      0.08    0.01    0.34
  HS02004837HS02004842 CONDUIT     18.64     0  02:07      0.42    0.01    0.35
  HS02004830HS02004837 CONDUIT     67.83     0  01:54      0.68    0.07    0.14
  HS02004824HS02004830 CONDUIT     68.05     0  01:56      0.62    0.09    0.18
  HS02004817HS02004824 CONDUIT    136.25     0  01:57      0.32    0.06    0.60
  HS02004770HS02004777 CONDUIT    189.68     0  01:52      0.49    0.35    0.55
  HS02004799HS02004480 CONDUIT    470.64     0  01:53      1.09    0.59    0.62
  HS02004792HS02004799 CONDUIT    430.88     0  01:53      1.22    0.26    0.50
  HS02004788HS02004792 CONDUIT    248.73     0  01:54      1.29    0.16    0.28
  HS02004785HS02004788 CONDUIT    189.53     0  01:53      0.92    1.43    0.30
  HS02004777HS02004785 CONDUIT    189.41     0  01:53      0.59    0.23    0.46
  HS02004480HS02004478 CONDUIT    554.37     0  01:53      1.59    2.33    0.50
  HS02004479HS02004480 CONDUIT     83.71     0  01:53      0.37    0.08    0.59
  HS02004862HS02004870 CONDUIT     86.18     0  01:55      0.82    0.09    0.15
  HS02004848HS02004852 CONDUIT     40.37     0  01:54      0.54    0.05    0.11
  HS02004856HS02004862 CONDUIT     60.18     0  01:54      0.61    0.06    0.14
  HS02004852HS02004856 CONDUIT     40.43     0  01:55      0.35    0.05    0.17
  HS02004802HS02004478 CONDUIT    184.69     0  01:57      0.53    0.16    0.50
  HS02004478WS02006287 CONDUIT    735.63     0  01:54      2.18    0.21    0.38
  HS02004817HS02004807 CONDUIT    137.03     0  01:57      0.26    0.08    0.77
  HS02004807HS02004802 CONDUIT    183.91     0  01:56      0.47    0.35    0.56
  YS02001759YS02001757 CONDUIT    877.36     0  01:57      1.12    0.62    1.00
  YS02001762YS02001759 CONDUIT    433.56     0  01:55      0.55    0.50    1.00
  YS02001765YS02001762 CONDUIT    434.17     0  01:55      0.55    0.41    1.00
  YS02001770YS02001767 CONDUIT    434.25     0  01:55      0.55    1.72    1.00
  YS02001774YS02001770 CONDUIT    788.82     0  02:39      1.00    0.50    1.00
  YS02001779YS02001774 CONDUIT    788.68     0  02:39      1.00    0.40    1.00
  YS02001649YS02001757 CONDUIT   1000.80     0  01:49      1.27    0.61    1.00
  YS02001767YS02001765 CONDUIT    435.00     0  01:55      0.55    0.55    1.00
  YS02006561YS02001783 CONDUIT    982.77     0  02:15      2.15    0.51    1.00
  YS02001783YS02001784 CONDUIT    982.82     0  02:14      1.96    1.35    1.00
  YS02001784YS02001785 CONDUIT    983.71     0  02:15      1.96    2.29    1.00
  YS02001788YS02001790 CONDUIT    984.36     0  02:15      2.44    0.73    1.00
  YS02001790YS02001791 CONDUIT    984.15     0  02:15      2.92    1.07    1.00
  YS02001791YS02001793 CONDUIT    984.97     0  02:15      5.77    0.42    1.00
  YS02001910YS02001907 CONDUIT    663.70     0  01:52      0.85    0.37    1.00
  YS02001786YS02001788 CONDUIT    983.62     0  02:15      2.31    1.90    1.00
  YS02001915YS02001910 CONDUIT    663.68     0  01:52      0.85    0.33    1.00
  YS02001918YS02001915 CONDUIT    383.34     0  01:52      0.49    0.21    1.00
  YS02001923YS02001920 CONDUIT    377.66     0  01:52      0.82    0.17    1.00
  YS02001926YS02001923 CONDUIT    318.23     0  01:51      0.92    0.45    1.00
  YS02001929YS02001926 CONDUIT    266.89     0  01:52      0.98    0.13    1.00
  YS02001920YS02001918 CONDUIT    381.42     0  01:52      0.77    0.37    1.00
  YS02001629YS02163301 CONDUIT    223.45     0  01:45      0.28    0.28    1.00
  YS02001619YS02001622 CONDUIT    389.19     0  02:16      0.74    0.57    1.00
  YS02001622YS02001625 CONDUIT    388.71     0  02:16      0.49    0.21    1.00
  YS02001625YS02001629 CONDUIT    218.11     0  01:48      0.29    0.10    1.00
  YS02163301YS02001633 CONDUIT    225.17     0  01:45      0.29    0.21    1.00
  YS02163601YS02164001 CONDUIT    456.24     0  01:48      0.58    0.40    1.00
  YS02164001YS02001641 CONDUIT    455.79     0  01:48      0.58    0.62    1.00
  YS02001641YS02001644 CONDUIT    456.46     0  01:48      0.58    1.48    1.00
  YS02001647YS02001649 CONDUIT    846.70     0  02:52      1.08    0.45    1.00
  YS02006553YS02006556 CONDUIT    717.88     0  03:35      0.91    0.61    1.00
  YS02006556YS02006558 CONDUIT    717.99     0  03:35      0.91    0.57    1.00
  YSB6556YSB1171       CONDUIT     46.62     0  01:54      0.14    0.05    0.84
  YS02001907YS02006553 CONDUIT    717.82     0  03:35      0.80    0.84    1.00
  YS02006558YS02006561 CONDUIT    982.75     0  02:15      3.48    2.17    1.00
  YS02001633YS02163601 CONDUIT    456.28     0  01:48      0.58    0.48    1.00
  YS02001644YS02001647 CONDUIT    846.70     0  02:54      1.08    0.50    1.00
  YS02001745YS02001748 CONDUIT    450.43     0  02:16      1.67    0.17    0.99
  YS02001748YS02001751 CONDUIT    449.96     0  02:16      1.21    0.23    1.00
  YS02001751YS02001754 CONDUIT    450.67     0  02:16      1.02    0.22    1.00
  YS02001754YS02001757 CONDUIT    450.02     0  02:16      0.57    0.18    1.00
  YS02001882YS02001884 CONDUIT     56.05     0  01:48      0.16    0.06    1.00
  YS02001884YS02001887 CONDUIT     63.83     0  01:47      0.12    0.09    1.00
  YS02001890YS02001895 CONDUIT    523.48     0  01:51      0.67    0.24    1.00
  YS02001895YS02001898 CONDUIT    524.49     0  01:51      0.67    0.91    1.00
  YS02001898YS02001901 CONDUIT    526.10     0  01:51      0.67    0.34    1.00
  YS02001901YS02001904 CONDUIT    527.28     0  01:48      0.67    0.82    1.00
  YS02001904YS02001907 CONDUIT    530.69     0  01:48      0.68    0.19    1.00
  YS02001887YS02001890 CONDUIT    677.41     0  02:14      0.86    1.16    1.00
  YS02001652YS02001649 CONDUIT    519.59     0  02:10      0.71    0.26    1.00
  YS02001655YS02001652 CONDUIT    517.57     0  02:10      1.09    0.25    1.00
  YS02001658YS02001655 CONDUIT    515.93     0  02:10      1.41    0.22    1.00
  YS02001661YS02001658 CONDUIT    518.27     0  02:10      1.78    0.20    1.00
  YS02001664YS02001661 CONDUIT    748.40     0  01:57      1.69    0.23    0.77
  YSB1154YSB6556       CONDUIT     46.63     0  01:52      0.15    0.08    0.75
  YSB1174YSB1171       CONDUIT     38.37     0  01:50      0.11    0.06    0.87
  YSB1171HS02004479    CONDUIT     83.75     0  01:53      0.54    0.06    0.70
  HS02004881HS02006253 CONDUIT    153.29     0  01:54      2.70    0.03    0.54
  YS02001793JiankangQianchi CONDUIT    984.39     0  02:15     16.69    0.08    1.00
  YS02001757CaochengTiaoxuchi CONDUIT   2147.98     0  01:55      3.55    0.94    1.00
  WSF200WS02003060     CONDUIT    958.80     0  01:55      1.98    0.21    0.45
  1                    CONDUIT   1347.53     0  02:02      3.60    0.47    0.48
  CC-Pump-1            PUMP       200.00     0  03:30              1.00
  CC-Pump-2            PUMP       200.00     0  03:40              1.00
  JK-Pump-1            PUMP       300.00     0  01:50              1.00
  JK-Pump-2            PUMP       683.00     0  02:00              1.00
  XR-Pump-1            PUMP        95.00     0  00:00              1.00
  XR-Pump-2            PUMP        95.00     0  00:00              1.00
  XR-Pump-3            PUMP        95.00     0  00:00              1.00
  XR-Pump-4            PUMP        95.00     0  00:00              1.00
  
  
  ***************************
  Flow Classification Summary
  ***************************
  
  -------------------------------------------------------------------------------------
                      Adjusted    ---------- Fraction of Time in Flow Class ---------- 
                       /Actual         Up    Down  Sub   Sup   Up    Down  Norm  Inlet 
  Conduit               Length    Dry  Dry   Dry   Crit  Crit  Crit  Crit  Ltd   Ctrl  
  -------------------------------------------------------------------------------------
  WS02003066WSF200        1.00   0.01  0.04  0.00  0.00  0.96  0.00  0.00  0.52  0.00
  WS02006287WS02006284    1.00   0.03  0.02  0.00  0.61  0.34  0.00  0.00  0.63  0.00
  WS02006284WS02006280    1.00   0.04  0.00  0.00  0.00  0.00  0.00  0.96  0.00  0.00
  WS02006280WS02006229    1.00   0.04  0.00  0.00  0.02  0.02  0.00  0.91  0.01  0.00
  WS02006229WS02006228    1.00   0.00  0.00  0.00  1.00  0.00  0.00  0.00  0.00  0.00
  WS02006256WS02006235    1.00   0.02  0.00  0.00  0.98  0.00  0.00  0.00  0.00  0.00
  WS02006253WS02006251    1.00   0.01  0.02  0.00  0.96  0.00  0.01  0.00  0.00  0.00
  WS02006252WS02006251    1.00   0.10  0.00  0.00  0.09  0.00  0.81  0.00  0.00  0.00
  WS02006251WS02006249    1.00   0.00  0.00  0.00  1.00  0.00  0.00  0.00  0.28  0.00
  WS02006249WS02006248    1.00   0.00  0.00  0.00  0.91  0.00  0.09  0.00  0.00  0.00
  WS02006248WS02006247    1.00   0.01  0.00  0.00  0.98  0.00  0.00  0.01  0.13  0.00
  WS02006247WS02006245    1.00   0.01  0.00  0.00  0.96  0.00  0.00  0.03  0.00  0.00
  WS02006245WS02006243    1.00   0.01  0.00  0.00  0.95  0.00  0.00  0.04  0.01  0.00
  WS02006243WS02006242    1.00   0.01  0.00  0.00  0.97  0.00  0.00  0.02  0.14  0.00
  WS02006242WS02006240    1.00   0.01  0.01  0.00  0.97  0.00  0.01  0.00  0.00  0.00
  WS02006240WS02006239    1.00   0.02  0.00  0.00  0.94  0.00  0.00  0.04  0.01  0.00
  WS02006239WS02006238    1.00   0.02  0.00  0.00  0.98  0.00  0.00  0.00  0.01  0.00
  WS02006238WS02006235    1.00   0.02  0.00  0.00  0.98  0.00  0.00  0.00  0.00  0.00
  WS02006235WS02006234    1.00   0.02  0.00  0.00  0.96  0.00  0.02  0.00  0.00  0.00
  WS02006234WS02006232    1.00   0.02  0.00  0.00  0.98  0.00  0.00  0.00  0.00  0.00
  WS02006232WS02006231    1.00   0.02  0.00  0.00  0.98  0.00  0.00  0.00  0.00  0.00
  WS02006231WS02006230    1.00   0.02  0.00  0.00  0.67  0.00  0.31  0.00  0.00  0.00
  WS02006230WS02006229    1.00   0.00  0.00  0.00  0.99  0.00  0.00  0.01  0.00  0.00
  WS02006228WS02006109    1.00   0.00  0.00  0.00  1.00  0.00  0.00  0.00  0.00  0.00
  WS02006116WS02004401    1.00   0.03  0.00  0.00  0.97  0.00  0.00  0.00  0.00  0.00
  WS02006115WS02006116    1.00   0.03  0.00  0.00  0.97  0.00  0.00  0.00  0.00  0.00
  WS02006113WS02006111    1.00   0.02  0.00  0.00  0.06  0.93  0.00  0.00  0.19  0.00
  WS02006112WS02006115    1.00   0.02  0.01  0.00  0.97  0.00  0.00  0.00  0.00  0.00
  WS02006111WS02006112    1.00   0.02  0.00  0.00  0.98  0.00  0.00  0.00  0.79  0.00
  WS02006110WS02006113    1.00   0.00  0.01  0.00  0.98  0.00  0.00  0.00  0.00  0.00
  WS02006109WS02006110    1.00   0.00  0.00  0.00  0.99  0.00  0.00  0.00  0.00  0.00
  WS02004411WS02004412    1.00   0.04  0.00  0.00  0.96  0.00  0.00  0.00  0.00  0.00
  WS02004401WS02004402    1.00   0.03  0.00  0.00  0.97  0.00  0.00  0.00  0.00  0.00
  WS02004413WS02003067    1.00   0.04  0.00  0.00  0.00  0.00  0.96  0.00  0.00  0.00
  WS02004412WS02004413    1.00   0.04  0.00  0.00  0.96  0.00  0.00  0.00  0.00  0.00
  WS02004410WS02004411    1.00   0.04  0.00  0.00  0.96  0.00  0.00  0.00  0.00  0.00
  WS02004409WS02004410    1.00   0.04  0.00  0.00  0.96  0.00  0.00  0.00  0.00  0.00
  WS02004407WS02004409    1.00   0.04  0.00  0.00  0.96  0.00  0.00  0.00  0.87  0.00
  WS02004406WS02004407    1.00   0.00  0.04  0.00  0.96  0.00  0.00  0.00  0.00  0.00
  WS02004405WS02004406    1.00   0.00  0.00  0.00  1.00  0.00  0.00  0.00  0.04  0.00
  WS02004404WS02004405    1.00   0.00  0.00  0.00  1.00  0.00  0.00  0.00  0.01  0.00
  WS02004403WS02004404    1.00   0.00  0.03  0.00  0.97  0.00  0.00  0.00  0.00  0.00
  WS02004402WS02004403    1.00   0.03  0.00  0.00  0.97  0.00  0.00  0.00  0.00  0.00
  WS02004139WS02001211    1.00   0.00  0.00  0.00  1.00  0.00  0.00  0.00  0.00  0.00
  WS02004138WS02004139    1.00   0.00  0.00  0.00  1.00  0.00  0.00  0.00  1.00  0.00
  WS02003067WS02003066    1.00   0.04  0.00  0.00  0.96  0.00  0.00  0.00  0.00  0.00
  WS02001213WS02003059    1.00   0.00  0.00  0.00  1.00  0.00  0.00  0.00  0.00  0.00
  WS02001212WS02001213    1.00   0.00  0.00  0.00  0.94  0.00  0.06  0.00  0.00  0.00
  WS02001211WS02001212    1.00   0.00  0.00  0.00  1.00  0.00  0.00  0.00  0.00  0.00
  WS02003072WS02003073    1.00   0.00  0.00  0.00  0.00  0.00  0.00  1.00  0.00  0.00
  WS02003069WS02003072    1.00   0.00  0.00  0.00  1.00  0.00  0.00  0.00  0.07  0.00
  WS02003060WS02003069    1.00   0.00  0.00  0.00  0.99  0.01  0.00  0.00  0.06  0.00
  WS02003059WS02003060    1.00   0.00  0.00  0.00  1.00  0.00  0.00  0.00  0.00  0.00
  HS02004901HS02004770    1.00   0.04  0.00  0.00  0.96  0.00  0.00  0.00  0.00  0.00
  HS02004876HS02004881    1.00   0.00  0.00  0.00  0.89  0.10  0.00  0.00  0.00  0.00
  HS02004870HS02004876    1.00   0.00  0.00  0.00  1.00  0.00  0.00  0.00  0.95  0.00
  HS02004842HS02004848    1.00   0.00  0.04  0.00  0.96  0.00  0.00  0.00  0.56  0.00
  HS02004837HS02004842    1.00   0.00  0.00  0.00  1.00  0.00  0.00  0.00  0.11  0.00
  HS02004830HS02004837    1.00   0.00  0.00  0.00  1.00  0.00  0.00  0.00  0.99  0.00
  HS02004824HS02004830    1.00   0.00  0.00  0.00  1.00  0.00  0.00  0.00  0.03  0.00
  HS02004817HS02004824    1.00   0.00  0.00  0.00  1.00  0.00  0.00  0.00  0.92  0.00
  HS02004770HS02004777    1.00   0.00  0.04  0.00  0.96  0.00  0.00  0.00  0.02  0.00
  HS02004799HS02004480    1.00   0.00  0.01  0.00  0.96  0.00  0.03  0.00  0.00  0.00
  HS02004792HS02004799    1.00   0.00  0.00  0.00  1.00  0.00  0.00  0.00  0.98  0.00
  HS02004788HS02004792    1.00   0.00  0.00  0.00  1.00  0.00  0.00  0.00  0.98  0.00
  HS02004785HS02004788    1.00   0.00  0.00  0.00  1.00  0.00  0.00  0.00  0.00  0.00
  HS02004777HS02004785    1.00   0.00  0.00  0.00  1.00  0.00  0.00  0.00  0.11  0.00
  HS02004480HS02004478    1.00   0.04  0.00  0.00  0.67  0.00  0.00  0.30  0.00  0.00
  HS02004479HS02004480    1.00   0.01  0.00  0.00  0.99  0.00  0.00  0.00  0.11  0.00
  HS02004862HS02004870    1.00   0.00  0.00  0.00  1.00  0.00  0.00  0.00  0.03  0.00
  HS02004848HS02004852    1.00   0.04  0.00  0.00  0.96  0.00  0.00  0.00  0.79  0.00
  HS02004856HS02004862    1.00   0.00  0.05  0.00  0.95  0.00  0.00  0.00  0.84  0.00
  HS02004852HS02004856    1.00   0.04  0.00  0.00  0.96  0.00  0.00  0.00  0.77  0.00
  HS02004802HS02004478    1.00   0.04  0.00  0.00  0.96  0.00  0.00  0.00  0.02  0.00
  HS02004478WS02006287    1.00   0.04  0.00  0.00  0.73  0.23  0.00  0.00  0.62  0.00
  HS02004817HS02004807    1.00   0.00  0.04  0.00  0.96  0.00  0.00  0.00  0.01  0.00
  HS02004807HS02004802    1.00   0.04  0.00  0.00  0.96  0.00  0.00  0.00  0.00  0.00
  YS02001759YS02001757    1.00   0.00  0.00  0.00  1.00  0.00  0.00  0.00  0.15  0.00
  YS02001762YS02001759    1.00   0.00  0.00  0.00  1.00  0.00  0.00  0.00  0.02  0.00
  YS02001765YS02001762    1.00   0.00  0.00  0.00  1.00  0.00  0.00  0.00  0.13  0.00
  YS02001770YS02001767    1.00   0.00  0.00  0.00  1.00  0.00  0.00  0.00  0.00  0.00
  YS02001774YS02001770    1.00   0.00  0.04  0.00  0.96  0.00  0.00  0.00  0.02  0.00
  YS02001779YS02001774    1.00   0.00  0.00  0.00  1.00  0.00  0.00  0.00  0.17  0.00
  YS02001649YS02001757    1.00   0.00  0.00  0.00  1.00  0.00  0.00  0.00  0.15  0.00
  YS02001767YS02001765    1.00   0.00  0.00  0.00  1.00  0.00  0.00  0.00  0.00  0.00
  YS02006561YS02001783    1.00   0.05  0.00  0.00  0.37  0.58  0.00  0.00  0.44  0.00
  YS02001783YS02001784    1.00   0.00  0.05  0.00  0.95  0.00  0.00  0.00  0.00  0.00
  YS02001784YS02001785    1.00   0.00  0.00  0.00  1.00  0.00  0.00  0.00  0.16  0.00
  YS02001788YS02001790    1.00   0.00  0.00  0.00  0.44  0.56  0.00  0.00  0.38  0.00
  YS02001790YS02001791    1.00   0.00  0.00  0.00  0.41  0.59  0.00  0.00  0.42  0.00
  YS02001791YS02001793    1.00   0.00  0.00  0.00  0.44  0.56  0.00  0.00  0.02  0.00
  YS02001910YS02001907    1.00   0.00  0.00  0.00  0.99  0.00  0.00  0.01  0.12  0.00
  YS02001786YS02001788    1.00   0.00  0.00  0.00  0.42  0.58  0.00  0.00  0.00  0.00
  YS02001915YS02001910    1.00   0.00  0.00  0.00  0.99  0.01  0.00  0.00  0.13  0.00
  YS02001918YS02001915    1.00   0.00  0.00  0.00  0.99  0.00  0.00  0.00  0.51  0.00
  YS02001923YS02001920    1.00   0.00  0.00  0.00  1.00  0.00  0.00  0.00  0.74  0.00
  YS02001926YS02001923    1.00   0.00  0.02  0.00  0.25  0.00  0.73  0.00  0.00  0.00
  YS02001929YS02001926    1.00   0.00  0.04  0.00  0.96  0.00  0.00  0.00  0.65  0.00
  YS02001920YS02001918    1.00   0.00  0.00  0.00  1.00  0.00  0.00  0.00  0.00  0.00
  YS02001629YS02163301    1.00   0.04  0.00  0.00  0.96  0.00  0.00  0.00  0.00  0.00
  YS02001619YS02001622    1.00   0.04  0.00  0.00  0.96  0.00  0.00  0.00  0.00  0.00
  YS02001622YS02001625    1.00   0.04  0.00  0.00  0.96  0.00  0.00  0.00  0.03  0.00
  YS02001625YS02001629    1.00   0.04  0.01  0.00  0.94  0.00  0.01  0.00  0.00  0.00
  YS02163301YS02001633    1.00   0.00  0.04  0.00  0.96  0.00  0.00  0.00  0.00  0.00
  YS02163601YS02164001    1.00   0.00  0.02  0.00  0.98  0.00  0.00  0.00  0.00  0.00
  YS02164001YS02001641    1.00   0.00  0.02  0.00  0.98  0.00  0.00  0.00  0.06  0.00
  YS02001641YS02001644    1.00   0.00  0.00  0.00  1.00  0.00  0.00  0.00  0.00  0.00
  YS02001647YS02001649    1.00   0.00  0.05  0.00  0.95  0.00  0.00  0.00  0.01  0.00
  YS02006553YS02006556    1.00   0.00  0.00  0.00  1.00  0.00  0.00  0.00  0.03  0.00
  YS02006556YS02006558    1.00   0.00  0.00  0.00  1.00  0.00  0.00  0.00  0.00  0.00
  YSB6556YSB1171          1.00   0.01  0.03  0.00  0.96  0.00  0.00  0.00  0.00  0.00
  YS02001907YS02006553    1.00   0.00  0.01  0.00  0.99  0.00  0.00  0.00  0.00  0.00
  YS02006558YS02006561    1.00   0.05  0.00  0.00  0.26  0.70  0.00  0.00  0.43  0.00
  YS02001633YS02163601    1.00   0.00  0.00  0.00  1.00  0.00  0.00  0.00  0.15  0.00
  YS02001644YS02001647    1.00   0.00  0.05  0.00  0.95  0.00  0.00  0.00  0.00  0.00
  YS02001745YS02001748    1.00   0.00  0.00  0.00  0.92  0.00  0.00  0.07  0.01  0.00
  YS02001748YS02001751    1.00   0.00  0.00  0.00  0.98  0.02  0.00  0.00  0.14  0.00
  YS02001751YS02001754    1.00   0.00  0.00  0.00  0.95  0.00  0.00  0.05  0.01  0.00
  YS02001754YS02001757    1.00   0.00  0.00  0.00  1.00  0.00  0.00  0.00  0.17  0.00
  YS02001882YS02001884    1.00   0.04  0.00  0.00  0.96  0.00  0.00  0.00  0.00  0.00
  YS02001884YS02001887    1.00   0.01  0.02  0.00  0.97  0.00  0.00  0.00  0.00  0.00
  YS02001890YS02001895    1.00   0.00  0.04  0.00  0.96  0.00  0.00  0.00  0.00  0.00
  YS02001895YS02001898    1.00   0.04  0.00  0.00  0.95  0.00  0.01  0.00  0.00  0.00
  YS02001898YS02001901    1.00   0.04  0.00  0.00  0.96  0.00  0.00  0.00  0.01  0.00
  YS02001901YS02001904    1.00   0.04  0.00  0.00  0.96  0.00  0.00  0.00  0.00  0.00
  YS02001904YS02001907    1.00   0.00  0.04  0.00  0.96  0.00  0.00  0.00  0.00  0.00
  YS02001887YS02001890    1.00   0.00  0.00  0.00  0.99  0.00  0.01  0.00  0.00  0.00
  YS02001652YS02001649    1.00   0.00  0.00  0.00  1.00  0.00  0.00  0.00  0.15  0.00
  YS02001655YS02001652    1.00   0.00  0.00  0.00  0.95  0.00  0.00  0.05  0.01  0.00
  YS02001658YS02001655    1.00   0.00  0.04  0.00  0.94  0.02  0.00  0.00  0.02  0.00
  YS02001661YS02001658    1.00   0.04  0.00  0.00  0.92  0.04  0.00  0.00  0.01  0.00
  YS02001664YS02001661    1.00   0.04  0.00  0.00  0.93  0.03  0.00  0.00  0.10  0.00
  YSB1154YSB6556          1.00   0.04  0.00  0.00  0.96  0.00  0.00  0.00  0.01  0.00
  YSB1174YSB1171          1.00   0.01  0.01  0.00  0.98  0.00  0.00  0.00  0.00  0.00
  YSB1171HS02004479       1.00   0.01  0.00  0.00  0.99  0.00  0.00  0.00  0.10  0.00
  HS02004881HS02006253    1.00   0.01  0.00  0.00  0.61  0.05  0.00  0.33  0.46  0.00
  YS02001793JiankangQianchi    1.00   0.00  0.00  0.00  0.67  0.33  0.00  0.00  0.36  0.00
  YS02001757CaochengTiaoxuchi    1.00   0.00  0.06  0.00  0.91  0.03  0.00  0.00  0.00  0.00
  WSF200WS02003060        1.00   0.00  0.01  0.00  0.99  0.00  0.00  0.00  0.44  0.00
  1                       1.00   0.00  0.00  0.00  0.00  1.00  0.00  0.00  0.53  0.00
  
  
  *************************
  Conduit Surcharge Summary
  *************************
  
  ----------------------------------------------------------------------------
                                                           Hours        Hours 
                         --------- Hours Full --------   Above Full   Capacity
  Conduit                Both Ends  Upstream  Dnstream   Normal Flow   Limited
  ----------------------------------------------------------------------------
  WS02006229WS02006228        3.43      3.50      3.43      4.28         3.43
  WS02006256WS02006235        5.99      5.99      7.08      4.89         0.01
  WS02006253WS02006251        1.35      1.36      1.42      0.01         0.02
  WS02006252WS02006251        0.69      0.69      1.57      1.02         0.01
  WS02006251WS02006249        1.38      1.38      1.49      0.42         0.29
  WS02006249WS02006248        1.43      1.43      1.49      2.04         0.01
  WS02006248WS02006247        1.50      1.50      1.72      0.01         0.01
  WS02006247WS02006245        1.73      1.75      1.73      2.68         1.35
  WS02006245WS02006243        1.77      1.77      1.91      0.06         0.04
  WS02006243WS02006242        1.95      1.95      2.40      0.01         0.01
  WS02006242WS02006240        2.33      2.33      2.57      1.07         0.01
  WS02006240WS02006239        2.39      2.39      2.61      0.41         0.34
  WS02006239WS02006238        2.89      2.89      3.01      0.48         0.38
  WS02006238WS02006235        3.00      3.00      3.15      0.01         0.03
  WS02006235WS02006234        2.80      2.80      2.97      5.79         0.02
  WS02006234WS02006232        2.89      2.89      3.28      0.60         0.60
  WS02006232WS02006231        2.15      2.15      3.28      0.75         0.01
[...]
  YS02001779YS02001774        6.13      6.13      6.19      0.01         0.01
  YS02001649YS02001757        6.19      6.19      6.23      0.01         0.01
  YS02001767YS02001765        6.18      6.18      6.18      0.01         0.01
  YS02006561YS02001783        1.69      1.69      1.93      0.01         0.01
  YS02001783YS02001784        1.91      1.93      1.91      2.13         1.89
  YS02001784YS02001785        1.85      1.91      1.85      2.90         1.85
  YS02001788YS02001790        1.80      1.80      2.57      0.01         0.01
  YS02001790YS02001791        2.57      2.57      2.66      1.82         1.80
  YS02001791YS02001793        2.66      2.66      3.00      0.01         0.01
  YS02001910YS02001907        1.93      1.93      2.38      0.01         0.01
  YS02001786YS02001788        1.80      1.85      1.80      2.56         1.80
  YS02001915YS02001910        1.80      1.80      1.93      0.01         0.01
  YS02001918YS02001915        1.65      1.65      1.80      0.01         0.01
  YS02001923YS02001920        1.49      1.49      1.68      0.01         0.01
  YS02001926YS02001923        0.01      0.01      0.01      0.01         0.01
  YS02001929YS02001926        0.01      0.01      0.01      0.01         0.01
  YS02001920YS02001918        1.65      1.65      1.68      0.01         0.01
  YS02001629YS02163301        6.16      6.16      6.17      0.01         0.01
  YS02001619YS02001622        6.09      6.09      6.10      0.01         0.03
  YS02001622YS02001625        6.10      6.10      6.16      0.01         0.01
  YS02001625YS02001629        6.08      6.08      6.16      0.01         0.01
  YS02163301YS02001633        6.17      6.17      6.18      0.01         0.01
  YS02163601YS02164001        6.17      6.17      6.20      0.01         0.01
  YS02164001YS02001641        6.17      6.17      6.18      0.01         0.02
  YS02001641YS02001644        6.18      6.18      6.19      2.38         2.53
  YS02001647YS02001649        6.15      6.15      6.19      0.01         0.01
  YS02006553YS02006556        2.11      2.11      2.47      0.01         0.01
  YS02006556YS02006558        2.20      2.20      2.53      0.01         0.01
  YSB6556YSB1171              0.01      0.01      0.30      0.01         0.01
  YS02001907YS02006553        2.92      2.92      3.12      0.01         0.01
  YS02006558YS02006561        1.78      2.08      1.78      2.78         1.78
  YS02001633YS02163601        6.17      6.17      6.20      0.01         0.01
  YS02001644YS02001647        6.15      6.15      6.19      0.01         0.01
  YS02001745YS02001748        0.01      0.01      6.04      0.01         0.01
  YS02001748YS02001751        6.05      6.05      6.08      0.01         0.01
  YS02001751YS02001754        6.08      6.08      6.14      0.01         0.01
  YS02001754YS02001757        6.15      6.15      6.23      0.01         0.01
  YS02001882YS02001884        1.80      1.80      1.82      0.01         0.01
  YS02001884YS02001887        1.85      1.85      1.87      0.01         0.01
  YS02001890YS02001895        1.78      1.78      1.94      0.01         0.01
  YS02001895YS02001898        1.77      1.77      1.78      0.01         0.01
  YS02001898YS02001901        1.79      1.79      1.85      0.01         0.01
  YS02001901YS02001904        1.83      1.83      1.85      0.01         0.01
  YS02001904YS02001907        1.83      1.83      2.50      0.01         0.01
  YS02001887YS02001890        1.89      1.89      1.91      0.52         0.01
  YS02001652YS02001649        6.15      6.15      6.19      0.01         0.01
  YS02001655YS02001652        6.10      6.10      6.15      0.01         0.01
  YS02001658YS02001655        6.05      6.05      6.10      0.01         0.01
  YS02001661YS02001658        0.19      0.19      6.05      0.01         0.01
  YS02001664YS02001661        0.01      0.01      1.73      0.01         0.01
  HS02004881HS02006253        0.01      0.01      0.71      0.01         0.01
  YS02001793JiankangQianchi        2.92      2.92      5.02      0.01         0.01
  YS02001757CaochengTiaoxuchi        5.75      5.75      6.23      0.01         0.01
  
  
  ***************
  Pumping Summary
  ***************
  
  ---------------------------------------------------------------------------------------------------------
                                                  Min       Avg       Max     Total     Power    % Time Off
                        Percent   Number of      Flow      Flow      Flow    Volume     Usage    Pump Curve
  Pump                 Utilized   Start-Ups       LPS       LPS       LPS  10^6 ltr     Kw-hr    Low   High
  ---------------------------------------------------------------------------------------------------------
  CC-Pump-1               46.78           6      0.00    151.19    200.00     1.860      1.58    0.0    0.0
  CC-Pump-2               23.40           4      0.00     96.70    200.00     0.720      0.85    0.0    0.0
  JK-Pump-1               65.94           4      0.00    238.42    300.00     4.366     59.66    0.0    0.0
  JK-Pump-2               57.43           3      0.00    447.34    683.00     7.437     88.27    0.0   97.9
  XR-Pump-1              100.00           1      0.00     95.00     95.00     2.679     22.83    0.0    0.0
  XR-Pump-2               97.86           2      0.00     94.34     95.00     2.565     20.40    0.0    0.0
  XR-Pump-3               95.73           3      0.00     92.56     95.00     2.451     17.96    0.0    0.0
  XR-Pump-4               95.73           3      0.00     92.56     95.00     2.451     17.96    0.0    0.0
  
  
  ***************************
  Link Pollutant Load Summary
  ***************************
  
  ------------------------------------------------------------------------------------------
                                 COD            SS            TN            TP         NH4-N
  Link                            kg            kg            kg            kg            kg
  ------------------------------------------------------------------------------------------
  WS02003066WSF200          1021.538      1969.472        24.828         2.102        12.842
  WS02006287WS02006284       438.049       854.461        12.585         1.181         6.762
  WS02006284WS02006280       438.544       855.253        12.632         1.187         6.792
  WS02006280WS02006229       438.554       855.307        12.631         1.186         6.791
  WS02006229WS02006228      1005.738      1939.739        24.130         2.021        12.435
  WS02006256WS02006235       257.179       486.389         5.407         0.407         2.694
  WS02006253WS02006251        86.768       174.002         1.874         0.140         0.925
  WS02006252WS02006251       270.564       517.443         5.153         0.354         2.478
  WS02006251WS02006249       346.523       671.065         6.814         0.479         3.301
  WS02006249WS02006248       324.445       626.172         6.396         0.450         3.100
  WS02006248WS02006247       321.699       620.314         6.349         0.447         3.079
  WS02006247WS02006245       322.131       621.222         6.361         0.448         3.085
  WS02006245WS02006243       322.949       622.952         6.376         0.450         3.093
  WS02006243WS02006242       324.538       625.921         6.418         0.453         3.114
  WS02006242WS02006240       325.175       626.847         6.425         0.453         3.116
  WS02006240WS02006239       326.148       628.157         6.460         0.456         3.136
  WS02006239WS02006238       326.988       628.921         6.505         0.461         3.163
  WS02006238WS02006235       327.116       628.551         6.527         0.464         3.176
  WS02006235WS02006234       571.609      1092.683        11.605         0.843         5.699
  WS02006234WS02006232       570.769      1091.116        11.588         0.842         5.691
  WS02006232WS02006231       569.889      1089.450        11.571         0.841         5.682
  WS02006231WS02006230       569.377      1088.521        11.563         0.841         5.679
  WS02006230WS02006229       569.168      1088.146        11.564         0.841         5.681
  WS02006228WS02006109      1004.265      1937.016        24.087         2.017        12.412
  WS02006116WS02004401      1024.322      1974.415        24.975         2.118        12.930
  WS02006115WS02006116      1024.846      1975.349        24.998         2.121        12.943
  WS02006113WS02006111      1009.464      1944.759        24.774         2.106        12.848
  WS02006112WS02006115      1025.601      1976.659        25.036         2.125        12.965
  WS02006111WS02006112      1008.989      1943.864        24.757         2.104        12.839
  WS02006110WS02006113      1010.070      1945.804        24.799         2.109        12.862
  WS02006109WS02006110      1011.386      1948.061        24.865         2.116        12.902
  WS02004411WS02004412      1022.882      1971.809        24.912         2.111        12.893
  WS02004401WS02004402      1023.816      1973.551        24.945         2.115        12.912
  WS02004413WS02003067      1021.823      1970.054        24.836         2.102        12.846
  WS02004412WS02004413      1022.515      1971.180        24.888         2.109        12.878
  WS02004410WS02004411      1023.144      1972.276        24.928         2.113        12.902
  WS02004409WS02004410      1023.426      1972.758        24.947         2.116        12.914
  WS02004407WS02004409      1023.562      1973.005        24.956         2.117        12.920
  WS02004406WS02004407      1023.491      1972.901        24.951         2.116        12.917
  WS02004405WS02004406      1024.291      1974.205        25.020         2.124        12.959
  WS02004404WS02004405      1024.115      1973.961        24.997         2.122        12.945
  WS02004403WS02004404      1023.155      1972.432        24.902         2.110        12.885
  WS02004402WS02004403      1023.495      1973.004        24.925         2.112        12.900
  WS02004139WS02001211      1360.945      2306.487       102.096        12.315        62.511
  WS02004138WS02004139      1366.968      2316.654       102.542        12.369        62.783
  WS02003067WS02003066      1021.663      1969.706        24.833         2.102        12.845
  WS02001213WS02003059      1394.851      2359.600       105.634        12.762        64.736
  WS02001212WS02001213      1403.374      2373.862       106.299        12.843        65.144
  WS02001211WS02001212      1405.482      2377.306       106.481        12.865        65.257
  WS02003072WS02003073      2517.892      4490.430       140.464        16.118        83.840
  WS02003069WS02003072      2522.714      4498.292       140.884        16.170        84.101
  WS02003060WS02003069      2524.996      4502.227       141.033        16.188        84.191
  WS02003059WS02003060      1392.029      2354.752       105.446        12.740        64.622
  HS02004901HS02004770        19.399        38.441         0.369         0.028         0.174
  HS02004876HS02004881        64.838       131.147         1.382         0.100         0.674
  HS02004870HS02004876        49.299        99.613         1.094         0.080         0.537
  HS02004842HS02004848         9.278        18.136         0.191         0.013         0.089
  HS02004837HS02004842        13.926        25.527         0.662         0.072         0.384
  HS02004830HS02004837        81.305       145.726         4.858         0.568         2.931
  HS02004824HS02004830        82.098       147.030         4.931         0.577         2.976
  HS02004817HS02004824       118.559       221.796         5.666         0.624         3.333
  HS02004770HS02004777        73.683       147.821         1.507         0.104         0.700
  HS02004799HS02004480       235.072       460.615         5.679         0.484         2.882
  HS02004792HS02004799       214.134       417.315         5.330         0.464         2.722
  HS02004788HS02004792       116.311       227.333         3.333         0.303         1.755
  HS02004785HS02004788        75.098       150.084         1.653         0.123         0.793
  HS02004777HS02004785        74.429       149.012         1.592         0.115         0.755
  HS02004480HS02004478       294.405       579.888         6.703         0.559         3.370
  HS02004479HS02004480        62.978       125.157         1.335         0.113         0.681
  HS02004862HS02004870        37.530        74.845         0.862         0.066         0.425
  HS02004848HS02004852        15.821        31.380         0.320         0.022         0.149
  HS02004856HS02004862        25.850        52.196         0.514         0.035         0.242
  HS02004852HS02004856        15.835        31.402         0.320         0.022         0.149
  HS02004802HS02004478       144.585       276.090         5.947         0.629         3.432
  HS02004478WS02006287       438.201       854.683        12.601         1.183         6.772
  HS02004817HS02004807       117.199       219.649         5.526         0.607         3.245
  HS02004807HS02004802       144.752       276.346         5.979         0.633         3.453
  YS02001759YS02001757       411.457       777.049         8.069         0.565         3.936
  YS02001762YS02001759       262.035       496.061         5.285         0.373         2.594
  YS02001765YS02001762       263.307       499.576         5.327         0.377         2.618
  YS02001770YS02001767       266.814       509.422         5.236         0.358         2.546
  YS02001774YS02001770       478.383       937.126         9.205         0.619         4.453
  YS02001779YS02001774       477.889       936.256         9.272         0.630         4.500
  YS02001649YS02001757       493.004       924.589         9.811         0.672         4.732
  YS02001767YS02001765       265.248       504.375         5.376         0.381         2.643
  YS02006561YS02001783      1263.658      2385.582        26.099         1.930        12.923
  YS02001783YS02001784      1263.539      2385.391        26.095         1.929        12.920
  YS02001784YS02001785      1270.887      2397.167        26.808         2.018        13.366
  YS02001788YS02001790      1271.559      2398.250        26.886         2.029        13.416
  YS02001790YS02001791      1272.653      2399.989        27.002         2.043        13.489
  YS02001791YS02001793      1272.627      2399.932        27.000         2.043        13.487
  YS02001910YS02001907       566.483      1069.411        12.868         0.956         6.509
  YS02001786YS02001788      1271.091      2397.497        26.836         2.022        13.384
  YS02001915YS02001910       566.209      1068.876        12.820         0.949         6.478
  YS02001918YS02001915       279.782       507.221         7.003         0.607         3.691
  YS02001923YS02001920       254.591       464.197         4.980         0.361         2.442
  YS02001926YS02001923       251.577       458.770         4.865         0.350         2.377
  YS02001929YS02001926       248.540       453.523         4.709         0.332         2.284
  YS02001920YS02001918       275.694       498.643         6.912         0.601         3.646
  YS02001629YS02163301        89.736       159.435         1.895         0.125         0.888
  YS02001619YS02001622       259.379       485.232         5.243         0.348         2.461
  YS02001622YS02001625       258.413       483.714         5.219         0.346         2.450
  YS02001625YS02001629        86.783       153.570         1.849         0.121         0.865
  YS02163301YS02001633        94.585       168.948         1.972         0.131         0.927
  YS02163601YS02164001       528.960       976.381        10.163         0.735         4.885
  YS02164001YS02001641       528.860       976.203        10.151         0.733         4.878
  YS02001641YS02001644       529.878       977.907        10.163         0.734         4.883
  YS02001647YS02001649       639.693      1201.880        12.724         0.882         6.093
  YS02006553YS02006556       782.641      1458.516        16.667         1.264         8.354
  YS02006556YS02006558       782.829      1458.868        16.633         1.259         8.330
  YSB6556YSB1171              36.519        72.729         0.718         0.058         0.359
  YS02001907YS02006553       782.634      1458.513        16.696         1.268         8.373
  YS02006558YS02006561      1263.624      2385.508        26.099         1.930        12.922
  YS02001633YS02163601       529.574       977.355        10.141         0.730         4.867
  YS02001644YS02001647       647.524      1216.541        12.842         0.891         6.146
  YS02001745YS02001748       354.024       679.888         6.988         0.437         3.357
  YS02001748YS02001751       353.338       678.725         6.995         0.440         3.365
  YS02001751YS02001754       352.436       677.242         6.982         0.440         3.360
  YS02001754YS02001757       353.242       678.444         7.148         0.462         3.467
  YS02001882YS02001884         4.140         7.353         0.079         0.006         0.039
  YS02001884YS02001887         7.508        13.554         0.142         0.011         0.070
  YS02001890YS02001895       614.701      1175.266        11.360         0.858         5.543
  YS02001895YS02001898       614.572      1175.120        11.354         0.858         5.539
  YS02001898YS02001901       614.421      1174.831        11.350         0.857         5.538
  YS02001901YS02001904       614.262      1174.604        11.359         0.859         5.544
  YS02001904YS02001907       614.556      1175.029        11.416         0.866         5.580
  YS02001887YS02001890       669.153      1284.164        12.354         0.936         6.031
  YS02001652YS02001649       314.977       597.517         6.259         0.452         2.941
  YS02001655YS02001652       315.567       598.486         6.275         0.454         2.949
  YS02001658YS02001655       315.150       597.842         6.191         0.442         2.894
  YS02001661YS02001658       315.803       598.926         6.206         0.443         2.901
  YS02001664YS02001661       325.775       614.743         6.444         0.459         3.009
  YSB1154YSB6556              36.098        72.064         0.671         0.053         0.329
  YSB1174YSB1171              24.947        50.011         0.489         0.039         0.242
  YSB1171HS02004479           62.899       125.012         1.341         0.114         0.684
  HS02004881HS02006253        73.082       148.268         1.532         0.110         0.746
  YS02001793JiankangQianchi      1272.368      2399.544        26.941         2.035        13.449
  YS02001757CaochengTiaoxuchi       668.017      1262.448        13.005         0.893         6.274
  WSF200WS02003060          1021.581      1969.511        24.833         2.102        12.845
  1                         2524.674      4500.460       141.292        16.225        84.366
  CC-Pump-1                  194.212       371.282         3.697         0.254         1.778
  CC-Pump-2                   75.987       145.444         1.443         0.099         0.694
  JK-Pump-1                  354.104       674.738         7.292         0.544         3.617
  JK-Pump-2                  735.199      1409.316        14.846         1.093         7.323
  XR-Pump-1                  373.700       630.377        28.678         3.472        17.596
  XR-Pump-2                  346.317       586.563        26.050         3.144        15.953
  XR-Pump-3                  325.255       552.822        24.049         2.894        14.705
  XR-Pump-4                  325.255       552.822        24.049         2.894        14.705
  

  Analysis begun on:  Fri Jul 16 03:04:33 2021
  Analysis ended on:  Fri Jul 16 03:04:36 2021
  Total elapsed time: 00:00:03