
  EPA STORM WATER MANAGEMENT MODEL - VERSION 5.1 (Build 5.3.0.dev0)
  --------------------------------------------------------------

  WARNING 04: minimum elevation drop used for Conduit WS02004404WS02004405
  WARNING 03: negative offset ignored for Link YS02001904YS02001907
  
  *********************************************************
  NOTE: The summary statistics displayed in this report are
  based on results found at every computational time step,  
  not just on results from each reporting time step.
  *********************************************************
  
  ****************
  Analysis Options
  ****************
  Flow Units ............... LPS
  Process Models:
    Rainfall/Runoff ........ YES
    RDII ................... NO
    Snowmelt ............... NO
    Groundwater ............ NO
    Flow Routing ........... YES
    Ponding Allowed ........ NO
    Water Quality .......... YES
  Infiltration Method ...... HORTON
  Flow Routing Method ...... DYNWAVE
  Surcharge Method ......... EXTRAN
  Starting Date ............ 08/28/2015 08:00:00
  Ending Date .............. 08/28/2015 16:00:00
  Antecedent Dry Days ...... 8.0
  Report Time Step ......... 00:01:00
  Wet Time Step ............ 00:01:00
  Dry Time Step ............ 00:01:00
  Routing Time Step ........ 5.00 sec
  Variable Time Step ....... YES
  Maximum Trials ........... 8
  Number of Threads ........ 4
  Head Tolerance ........... 0.001500 m
  
  
  **************************        Volume         Depth
  Runoff Quantity Continuity     hectare-m            mm
  **************************     ---------       -------
  Total Precipitation ......        10.887        23.836
  Evaporation Loss .........         0.000         0.000
  Infiltration Loss ........         1.418         3.104
  Surface Runoff ...........         8.323        18.222
  Final Storage ............         1.148         2.513
  Continuity Error (%) .....        -0.015
  
  
  **************************           COD            SS            TN            TP         NH4-N
  Runoff Quality Continuity             kg            kg            kg            kg            kg
  **************************    ----------    ----------    ----------    ----------    ----------
  Initial Buildup ..........     41378.656     70582.865      1804.177       168.684      1032.807
  Surface Buildup ..........        44.730        99.549         2.633         0.232         1.473
  Wet Deposition ...........         0.000         0.000         0.000         0.000         0.000
  Sweeping Removal .........         0.000         0.000         0.000         0.000         0.000
  Infiltration Loss ........       168.080       326.771         3.336         0.241         1.609
  BMP Removal ..............         0.000         0.000         0.000         0.000         0.000
  Surface Runoff ...........      9382.764     18311.870       184.103        12.981        88.313
  Remaining Buildup ........     31869.465     52037.902      1619.303       155.690       944.326
  Continuity Error (%) .....         0.007         0.008         0.004         0.003         0.003
  
  
  **************************        Volume        Volume
  Flow Routing Continuity        hectare-m      10^6 ltr
  **************************     ---------     ---------
  Dry Weather Inflow .......         0.630         6.296
  Wet Weather Inflow .......         8.321        83.207
  Groundwater Inflow .......         0.000         0.000
  RDII Inflow ..............         0.000         0.000
  External Inflow ..........         0.105         1.045
  External Outflow .........         2.203        22.025
  Flooding Loss ............         6.375        63.751
  Evaporation Loss .........         0.000         0.000
  Exfiltration Loss ........         0.000         0.000
  Initial Stored Volume ....         0.076         0.761
  Final Stored Volume ......         0.660         6.599
  Continuity Error (%) .....        -1.168
  
  
  **************************           COD            SS            TN            TP         NH4-N
  Quality Routing Continuity            kg            kg            kg            kg            kg
  **************************    ----------    ----------    ----------    ----------    ----------
  Dry Weather Inflow .......      1573.993      2518.389       151.103        18.888        94.440
  Wet Weather Inflow .......      9381.485     18309.591       184.075        12.979        88.300
  Groundwater Inflow .......         0.000         0.000         0.000         0.000         0.000
  RDII Inflow ..............         0.000         0.000         0.000         0.000         0.000
  External Inflow ..........       187.321       299.713        17.983         2.248        11.239
  External Outflow .........      2773.931      5076.465       135.658        15.083        79.623
  Flooding Loss ............      7614.073     14694.830       188.937        16.144        98.225
  Exfiltration Loss ........         0.000         0.000         0.000         0.000         0.000
  Mass Reacted .............         0.000         0.000         0.000         0.000         0.000
  Initial Stored Mass ......         0.000         0.000         0.000         0.000         0.000
  Final Stored Mass ........       658.186      1198.051        25.563         2.626        14.528
  Continuity Error (%) .....         0.867         0.749         0.850         0.767         0.826
  
  
  *************************
  Highest Continuity Errors
  *************************
  Node YS02001884 (10.62%)
  Node HS02004842 (7.72%)
  Node JK-storage (-7.16%)
  Node HS02004817 (1.57%)
  Node WS02006253 (1.44%)
  
  
  ***************************
  Time-Step Critical Elements
  ***************************
  Link WS02006252WS02006251 (56.14%)
  Link WS02006280WS02006229 (13.25%)
  Link WS02006238WS02006235 (7.74%)
  Link YS02001793JiankangQianchi (3.27%)
  Link YS02006556YS02006558 (2.86%)
  
  
  ********************************
  Highest Flow Instability Indexes
  ********************************
  Link WS02006113WS02006111 (38)
  Link YS02163601YS02164001 (26)
  Link YS02163301YS02001633 (25)
  Link YS02001629YS02163301 (25)
  Link YS02001619YS02001622 (24)
  
  
  *************************
  Routing Time Step Summary
  *************************
  Minimum Time Step           :     0.17 sec
  Average Time Step           :     1.36 sec
  Maximum Time Step           :     5.00 sec
  Percent in Steady State     :    -0.00
  Average Iterations per Step :     3.51
  Percent Not Converging      :    10.59
  
  
  ***************************
  Subcatchment Runoff Summary
  ***************************
  
  ------------------------------------------------------------------------------------------------------------------------------
                            Total      Total      Total      Total     Imperv       Perv      Total       Total     Peak  Runoff
                           Precip      Runon       Evap      Infil     Runoff     Runoff     Runoff      Runoff   Runoff   Coeff
  Subcatchment                 mm         mm         mm         mm         mm         mm         mm    10^6 ltr      LPS
  ------------------------------------------------------------------------------------------------------------------------------
  sub0                      23.84       0.00       0.00       0.77      22.13       0.90      23.02        0.02     5.06   0.966
  sub1                      23.84       0.00       0.00       1.33      21.12       1.29      22.42        0.15    33.98   0.940
  sub2                      23.84       0.00       0.00       5.60      14.93       3.22      18.15        0.17    32.49   0.761
  sub3                      23.84       0.00       0.00       5.94      14.89       2.88      17.77        0.40    70.76   0.746
  sub4                      23.84       0.00       0.00       1.46      20.96       1.16      22.12        0.46    81.55   0.928
  sub5                      23.84       0.00       0.00       0.82      22.07       0.85      22.93        0.26    59.56   0.962
  sub7                      23.84       0.00       0.00       1.03      21.63       1.11      22.74        0.08    19.22   0.954
  sub8                      23.84       0.00       0.00       1.05      21.62       1.10      22.72        0.15    35.26   0.953
  sub9                      23.84       0.00       0.00       1.05      21.62       1.10      22.71        0.11    26.33   0.953
  sub10                     23.84       0.00       0.00       0.94      21.84       0.97      22.81        0.25    58.74   0.957
  sub11                     23.84       0.00       0.00       0.92      21.86       0.99      22.85        0.27    65.28   0.959
  sub12                     23.84       0.00       0.00       1.50      20.69       1.60      22.29        0.19    51.10   0.935
  sub14                     23.84       0.00       0.00       1.05      21.62       1.09      22.71        0.22    51.81   0.953
  sub15                     23.84       0.00       0.00       4.05      16.62       3.10      19.72        0.34    74.01   0.827
  sub16                     23.84       0.00       0.00       4.23      15.93       3.63      19.56        0.20    48.29   0.821
  sub17                     23.84       0.00       0.00       4.13      16.17       3.50      19.67        0.17    39.49   0.825
  sub22                     23.84       0.00       0.00       6.08      13.55       4.17      17.72        1.12   235.47   0.743
  sub23                     23.84       0.00       0.00       5.01      14.97       3.81      18.78        0.90   197.86   0.788
  sub60                     23.84       0.00       0.00       2.13      18.89       0.73      19.63        5.95   667.30   0.823
  sub61                     23.84       0.00       0.00       3.01      18.57       1.04      19.60        6.04   717.95   0.822
  sub62                     23.84       0.00       0.00       1.25      20.37       0.65      21.02        6.46   751.14   0.882
  sub63                     23.84       0.00       0.00       5.57      16.07       1.34      17.42        5.27   638.31   0.731
  sub64                     23.84       0.00       0.00       2.78      18.18       0.79      18.97        5.77   644.78   0.796
  sub65                     23.84       0.00       0.00       2.36      18.54       0.74      19.28        5.93   658.64   0.809
  sub66                     23.84       0.00       0.00       5.92      15.42       0.99      16.41        5.03   574.80   0.689
  sub67                     23.84       0.00       0.00       1.18      20.95       0.73      21.68        6.69   814.16   0.910
  sub68                     23.84       0.00       0.00       2.35      19.39       0.99      20.38        6.27   750.28   0.855
  sub69                     23.84       0.00       0.00       2.36      19.64       1.21      20.85        4.87   655.18   0.875
  sub70                     23.84      21.29       0.00      10.13      28.17       5.22      33.38        7.64   861.91   0.740
  sub71                     23.84       0.00       0.00       1.29      20.08       0.62      20.70        4.89   557.88   0.868
  sub72                     23.84       0.00       0.00       1.26      17.61       0.41      18.02        3.67   352.81   0.756
  1                         23.84      32.51       0.00       1.40      34.72      12.67      47.39       11.14  1042.57   0.841
  2                         23.84       0.00       0.00       3.09       5.81       5.87      11.68        4.67   438.27   0.490
  
  
  ****************************
  Subcatchment Washoff Summary
  ****************************
  
  ------------------------------------------------------------------------------------------
                                 COD            SS            TN            TP         NH4-N
  Subcatchment                    kg            kg            kg            kg            kg
  ------------------------------------------------------------------------------------------
  sub0                         5.447        10.648         0.101         0.009         0.050
  sub1                        23.688        48.042         0.463         0.033         0.225
  sub2                        16.966        34.031         0.358         0.025         0.167
  sub3                        41.903        83.509         0.867         0.061         0.406
  sub4                        55.507       114.756         1.120         0.071         0.542
  sub5                        53.600       106.723         1.016         0.079         0.498
  sub7                        11.854        24.343         0.233         0.016         0.114
  sub8                        17.650        37.231         0.360         0.022         0.174
  sub9                        15.191        31.538         0.304         0.020         0.147
  sub10                       44.044        88.979         0.851         0.062         0.416
  sub11                       42.563        86.978         0.834         0.059         0.406
  sub12                       37.050        74.157         0.712         0.055         0.347
  sub14                       32.601        66.963         0.643         0.044         0.313
  sub15                       47.434        94.407         0.941         0.071         0.448
  sub16                       30.857        61.246         0.608         0.047         0.290
  sub17                       28.315        55.641         0.547         0.044         0.262
  sub22                      161.087       316.749         3.138         0.242         1.488
  sub23                       88.506       179.789         1.886         0.128         0.879
  sub60                      598.344      1178.908        11.877         0.761         5.730
  sub61                      736.068      1436.782        13.949         0.989         6.764
  sub62                      738.540      1463.835        14.545         0.960         7.035
  sub63                      558.943      1077.056        11.149         0.807         5.246
  sub64                      777.492      1479.304        14.547         1.088         7.009
  sub65                      791.436      1511.452        14.887         1.096         7.181
  sub66                      451.426       868.821         9.100         0.616         4.299
  sub67                     1074.243      2092.188        20.037         1.514         9.765
  sub68                      790.053      1552.644        15.337         1.072         7.395
  sub69                      691.205      1362.870        13.308         0.965         6.426
  sub70                     1290.326      2537.678        26.802         1.932        12.782
  sub71                      488.998       981.149         9.988         0.605         4.811
  sub72                      442.986       835.563         8.315         0.589         4.024
  1                         1060.964      2097.547        22.233         1.602        10.518
  2                          119.003       220.893         3.158         0.194         1.368
  ------------------------------------------------------------------------------------------
  System                   11364.294     22212.418       224.213        15.877       107.522
  
  
  ******************
  Node Depth Summary
  ******************
  
  ---------------------------------------------------------------------------------
                                 Average  Maximum  Maximum  Time of Max    Reported
                                   Depth    Depth      HGL   Occurrence   Max Depth
  Node                 Type       Meters   Meters   Meters  days hr:min      Meters
  ---------------------------------------------------------------------------------
  WS02001211           JUNCTION     0.78     0.86     5.69     0  01:45        0.86
  WS02001212           JUNCTION     0.49     0.59     5.65     0  01:46        0.59
  WS02001213           JUNCTION     0.73     0.86     5.63     0  01:44        0.86
  WS02003069           JUNCTION     0.52     0.73     5.32     0  01:45        0.73
  WS02003072           JUNCTION     0.58     0.77     5.14     0  01:46        0.77
  WS02003073           JUNCTION     0.36     0.49     4.55     0  01:46        0.49
  WS02003060           JUNCTION     0.46     0.65     5.58     0  01:45        0.65
  WS02003066           JUNCTION     0.25     0.40     5.95     0  01:35        0.40
  WS02003059           JUNCTION     0.78     0.92     5.61     0  01:45        0.92
  WS02003067           JUNCTION     0.60     0.84     6.16     0  01:34        0.84
  WS02004401           JUNCTION     0.75     1.46     7.46     0  01:32        1.29
  WS02004402           JUNCTION     0.77     1.41     7.37     0  01:32        1.27
  WS02004403           JUNCTION     0.79     1.37     7.30     0  01:32        1.24
  WS02004404           JUNCTION     0.86     1.39     7.24     0  01:32        1.28
  WS02004406           JUNCTION     0.85     1.25     7.08     0  01:32        1.18
  WS02004409           JUNCTION     0.55     1.04     6.81     0  01:35        1.02
  WS02004410           JUNCTION     0.56     1.01     6.73     0  01:35        1.00
  WS02004411           JUNCTION     0.57     0.97     6.65     0  01:35        0.97
  WS02004412           JUNCTION     0.58     0.94     6.58     0  01:35        0.93
  WS02004413           JUNCTION     0.74     1.05     6.52     0  01:35        1.04
  WS02004405           JUNCTION     0.85     1.36     7.21     0  01:32        1.24
  WS02006109           JUNCTION     0.87     1.91     8.53     0  01:33        1.86
  WS02006110           JUNCTION     0.83     1.79     8.37     0  01:32        1.63
  WS02006111           JUNCTION     0.31     1.28     7.98     0  01:32        1.00
  WS02006112           JUNCTION     0.94     1.90     7.78     0  01:32        1.65
  WS02006113           JUNCTION     0.40     1.43     8.32     0  01:32        1.07
  WS02006115           JUNCTION     0.65     1.53     7.67     0  01:32        1.29
  WS02006116           JUNCTION     0.73     1.53     7.57     0  01:32        1.32
  WS02006230           JUNCTION     0.89     2.14     8.88     0  01:33        2.11
  WS02006231           JUNCTION     0.64     1.74     8.87     0  01:33        1.72
  WS02006232           JUNCTION     0.77     1.81     8.85     0  01:34        1.80
  WS02006234           JUNCTION     0.70     1.68     8.84     0  01:34        1.66
  WS02006235           JUNCTION     0.74     1.67     8.84     0  01:33        1.64
  WS02006238           JUNCTION     0.76     1.69     8.83     0  01:34        1.67
  WS02006240           JUNCTION     0.65     1.50     8.80     0  01:34        1.47
  WS02006242           JUNCTION     0.69     1.51     8.77     0  01:34        1.49
  WS02006243           JUNCTION     0.57     1.33     8.75     0  01:33        1.31
  WS02006245           JUNCTION     0.54     1.24     8.73     0  01:34        1.23
  WS02006247           JUNCTION     0.54     1.21     8.71     0  01:34        1.20
  WS02006248           JUNCTION     0.48     1.10     8.69     0  01:32        1.10
  WS02006249           JUNCTION     0.50     1.09     8.69     0  01:32        1.09
  WS02006239           JUNCTION     0.71     1.61     8.82     0  01:34        1.59
  WS02006251           JUNCTION     0.47     1.96     9.63     0  01:32        1.13
  WS02006252           JUNCTION     0.30     1.50     9.74     0  01:32        0.69
  WS02006253           JUNCTION     0.50     1.94     9.58     0  01:32        1.16
  WS02006256           JUNCTION     1.85     2.35     9.28     0  00:00        2.35
  WS02004138           JUNCTION     0.19     0.20     7.45     0  00:00        0.19
  WS02004139           JUNCTION     0.73     0.80     5.71     0  01:45        0.80
  WS02004407           JUNCTION     0.24     0.42     6.74     0  01:35        0.42
  WS02006228           JUNCTION     0.90     2.11     8.76     0  01:33        2.08
  WS02006229           JUNCTION     0.89     2.21     8.90     0  01:33        2.17
  WS02006280           JUNCTION     0.09     0.51     8.78     0  01:33        0.50
  WS02006284           JUNCTION     0.40     0.72     9.12     0  01:34        0.72
  WS02006287           JUNCTION     0.13     0.46     9.42     0  01:34        0.46
  WSF200               JUNCTION     0.24     0.45     5.68     0  01:40        0.45
  HS02004901           JUNCTION     0.15     0.43    10.25     0  01:33        0.43
  HS02004881           JUNCTION     0.01     0.09     9.12     0  01:32        0.06
  HS02004876           JUNCTION     0.06     0.19     9.22     0  01:32        0.19
  HS02004870           JUNCTION     0.02     0.11     9.40     0  01:35        0.11
  HS02004862           JUNCTION     0.03     0.13     9.51     0  01:35        0.13
  HS02004856           JUNCTION     0.09     0.17     9.59     0  01:35        0.17
  HS02004852           JUNCTION     0.02     0.10     9.61     0  01:35        0.10
  HS02004848           JUNCTION     0.02     0.08     9.68     0  01:36        0.08
  HS02004842           JUNCTION     0.34     0.41     9.68     0  01:35        0.41
  HS02004837           JUNCTION     0.04     0.10     9.68     0  01:35        0.10
  HS02004830           JUNCTION     0.05     0.15     9.62     0  01:35        0.15
  HS02004824           JUNCTION     0.04     0.20     9.61     0  01:35        0.20
  HS02004817           JUNCTION     0.47     0.77     9.61     0  01:34        0.77
  HS02004807           JUNCTION     0.16     0.44     9.61     0  01:35        0.44
  HS02004802           JUNCTION     0.19     0.47     9.60     0  01:34        0.47
  HS02004799           JUNCTION     0.16     0.55     9.76     0  01:33        0.55
  HS02004792           JUNCTION     0.06     0.27     9.79     0  01:33        0.27
  HS02004788           JUNCTION     0.04     0.19    10.09     0  01:34        0.19
  HS02004785           JUNCTION     0.07     0.29    10.19     0  01:33        0.29
  HS02004777           JUNCTION     0.17     0.44    10.24     0  01:33        0.44
  HS02004770           JUNCTION     0.15     0.42    10.25     0  01:33        0.42
  HS02004480           JUNCTION     0.12     0.46     9.70     0  01:33        0.46
  HS02004479           JUNCTION     0.15     0.49     9.70     0  01:34        0.49
  HS02004478           JUNCTION     0.09     0.35     9.58     0  01:34        0.35
  YS02001745           JUNCTION     0.82     1.29     8.81     0  01:29        1.05
  YS02001748           JUNCTION     1.23     1.86     8.94     0  01:28        1.47
  YS02001751           JUNCTION     1.41     1.77     8.65     0  01:29        1.64
  YS02001754           JUNCTION     1.66     1.94     8.54     0  01:29        1.89
  YS02001762           JUNCTION     1.85     2.08     8.48     0  02:48        2.07
  YS02001765           JUNCTION     1.81     2.02     8.47     0  02:47        2.02
  YS02001767           JUNCTION     1.77     1.98     8.47     0  02:48        1.97
  YS02001770           JUNCTION     1.76     1.95     8.44     0  02:06        1.95
  YS02001774           JUNCTION     1.82     2.05     8.47     0  01:26        1.99
  YS02001779           JUNCTION     1.56     1.68     8.37     0  01:26        1.68
  YS02001882           JUNCTION     0.80     1.70     8.41     0  01:32        1.64
  YS02001884           JUNCTION     0.89     1.78     8.40     0  01:32        1.74
  YS02001759           JUNCTION     1.89     2.12     8.48     0  02:48        2.11
  YS02001887           JUNCTION     0.97     1.84     8.38     0  01:32        1.82
  YS02001890           JUNCTION     1.00     1.81     8.32     0  01:32        1.81
  YS02001898           JUNCTION     0.76     1.70     8.44     0  01:32        1.56
  YS02001901           JUNCTION     0.88     1.81     8.42     0  01:32        1.67
  YS02001904           JUNCTION     0.85     1.73     8.36     0  01:32        1.63
  YS02001907           JUNCTION     1.18     1.96     8.25     0  01:32        1.96
  YS02001910           JUNCTION     0.98     1.99     8.50     0  01:33        1.88
  YS02001915           JUNCTION     0.78     1.93     8.64     0  01:33        1.77
  YS02001918           JUNCTION     0.51     1.81     8.88     0  01:33        1.59
  YS02001619           JUNCTION     1.35     1.61     8.54     0  01:27        1.53
  YS02001629           JUNCTION     1.70     1.85     8.40     0  01:27        1.85
  YS02001641           JUNCTION     1.79     1.96     8.39     0  01:29        1.93
  YS02001644           JUNCTION     1.79     1.92     8.35     0  01:29        1.92
  YS02001652           JUNCTION     1.66     2.04     8.64     0  01:29        1.89
  YS02001655           JUNCTION     1.43     1.97     8.82     0  01:29        1.69
  YS02001920           JUNCTION     0.62     2.10     9.11     0  01:33        1.67
  YS02001923           JUNCTION     0.43     2.01     9.27     0  01:33        1.44
  YS02001926           JUNCTION     0.44     1.90     9.35     0  01:33        1.27
  YS02001929           JUNCTION     0.29     1.78     9.47     0  01:33        1.05
  YS02001658           JUNCTION     1.16     1.76     8.90     0  01:29        1.42
  YS02001661           JUNCTION     0.92     1.84     9.24     0  01:29        1.16
  YS02001664           JUNCTION     0.43     0.68     8.61     0  01:30        0.68
  YS02001622           JUNCTION     1.37     1.62     8.52     0  01:27        1.54
  YS02001633           JUNCTION     1.79     1.98     8.43     0  01:29        1.94
  YS02001649           JUNCTION     1.86     2.05     8.44     0  01:29        2.05
  YS02001757           JUNCTION     1.99     2.21     8.47     0  02:35        2.21
  YS02001895           JUNCTION     0.76     1.66     8.41     0  01:32        1.56
  YS02001625           JUNCTION     1.65     1.78     8.38     0  01:27        1.78
  YS02163301           JUNCTION     1.73     1.90     8.42     0  01:29        1.89
  YS02163601           JUNCTION     1.84     2.03     8.43     0  01:29        1.98
  YS02164001           JUNCTION     1.78     1.96     8.42     0  01:29        1.91
  YS02001647           JUNCTION     1.63     1.79     8.40     0  04:51        1.79
  YSB1154              JUNCTION     0.29     0.65     9.70     0  01:34        0.65
  YSB6556              JUNCTION     0.19     0.53     9.70     0  01:33        0.53
  YSB1174              JUNCTION     0.24     0.59     9.70     0  01:33        0.59
  YSB1171              JUNCTION     0.44     0.80     9.70     0  01:34        0.80
  YS02006553           JUNCTION     1.18     1.98     8.27     0  01:32        1.97
  YS02006561           JUNCTION     0.48     1.57     8.23     0  01:32        1.09
  YS02006556           JUNCTION     1.15     1.97     8.28     0  01:32        1.94
  YS02006558           JUNCTION     1.19     2.03     8.30     0  01:32        1.98
  YS02001783           JUNCTION     0.74     1.78     7.92     0  01:32        1.48
  YS02001784           JUNCTION     0.75     1.73     7.80     0  01:32        1.42
  YS02001786           JUNCTION     0.66     1.63     7.66     0  01:32        1.26
  YS02001788           JUNCTION     0.58     1.72     7.70     0  01:32        1.13
  YS02001790           JUNCTION     0.71     1.96     7.60     0  05:06        1.29
  YS02001791           JUNCTION     0.68     2.59     8.06     0  05:05        1.28
  YS02001793           JUNCTION     0.98     2.66     7.49     0  05:04        1.80
  WSC                  OUTFALL      0.36     0.49     1.16     0  01:47        0.49
  JK-storage           STORAGE      3.59     5.80     6.60     0  01:32        5.80
  CC-storage           STORAGE      1.24     1.48     8.48     0  03:12        1.48
  XR-storage           STORAGE      7.20     7.72     5.72     0  01:47        7.72
  
  
  *******************
  Node Inflow Summary
  *******************
  
  -------------------------------------------------------------------------------------------------
                                  Maximum  Maximum                  Lateral       Total        Flow
                                  Lateral    Total  Time of Max      Inflow      Inflow     Balance
                                   Inflow   Inflow   Occurrence      Volume      Volume       Error
  Node                 Type           LPS      LPS  days hr:min    10^6 ltr    10^6 ltr     Percent
  -------------------------------------------------------------------------------------------------
  WS02001211           JUNCTION      7.35   391.73     0  03:16       0.212        10.7       0.390
  WS02001212           JUNCTION      0.00   396.10     0  03:15           0        10.6       0.236
  WS02001213           JUNCTION      0.00   399.91     0  03:16           0        10.6       0.293
  WS02003069           JUNCTION      0.32  1372.56     0  01:45     0.00922        22.1       0.192
  WS02003072           JUNCTION      0.00  1372.57     0  01:46           0        22.1       0.221
  WS02003073           JUNCTION      1.82  1374.32     0  01:46      0.0524        22.1       0.260
  WS02003060           JUNCTION     16.53  1372.29     0  01:44       0.476        22.2       0.180
  WS02003066           JUNCTION      0.00  1000.10     0  01:35           0        11.2       0.056
  WS02003059           JUNCTION      0.00   404.99     0  03:16           0        10.6       0.408
  WS02003067           JUNCTION      0.00   996.36     0  01:35           0        11.2       0.104
  WS02004401           JUNCTION      0.00  1015.93     0  01:34           0        11.5       0.237
  WS02004402           JUNCTION      0.00  1016.33     0  01:34           0        11.5       0.217
  WS02004403           JUNCTION      0.00  1017.24     0  01:34           0        11.4       0.193
  WS02004404           JUNCTION      0.16  1017.66     0  01:34     0.00467        11.4       0.138
  WS02004406           JUNCTION      0.00  1018.65     0  01:34           0        11.4       0.338
  WS02004409           JUNCTION      0.00  1016.30     0  01:34           0        11.3       0.213
  WS02004410           JUNCTION      0.00  1008.67     0  01:34           0        11.3       0.231
  WS02004411           JUNCTION      0.00   993.54     0  01:36           0        11.3       0.230
  WS02004412           JUNCTION      0.00   993.92     0  01:36           0        11.2       0.239
  WS02004413           JUNCTION      0.00   994.80     0  01:35           0        11.2       0.335
  WS02004405           JUNCTION      0.04  1018.70     0  01:34      0.0011        11.4       0.206
  WS02006109           JUNCTION      1.23   978.10     0  01:34      0.0354        11.5       0.126
  WS02006110           JUNCTION      0.00   978.00     0  01:34           0        11.4       0.198
  WS02006111           JUNCTION      0.00   977.70     0  01:34           0        11.4       0.050
  WS02006112           JUNCTION     39.49  1016.50     0  01:34       0.169        11.6       0.301
  WS02006113           JUNCTION      0.00   977.90     0  01:34           0        11.4       0.131
  WS02006115           JUNCTION      0.00  1016.07     0  01:34           0        11.5       0.245
  WS02006116           JUNCTION      0.00  1016.08     0  01:34           0        11.5       0.213
  WS02006230           JUNCTION     10.28   533.63     0  07:43       0.296        7.04       0.273
  WS02006231           JUNCTION      0.00   523.70     0  07:44           0        6.74       0.218
  WS02006232           JUNCTION      0.00   523.64     0  07:43           0        6.73       0.278
  WS02006234           JUNCTION      0.00   524.01     0  07:43           0        6.71       0.136
  WS02006235           JUNCTION      0.00   524.34     0  07:44           0        6.91       0.200
  WS02006238           JUNCTION      0.00   328.87     0  07:44           0        3.28       0.084
  WS02006240           JUNCTION      0.00   339.06     0  07:02           0        3.21       0.515
  WS02006242           JUNCTION      0.00   348.05     0  05:11           0        3.19       0.649
  WS02006243           JUNCTION      0.00   356.65     0  05:11           0        3.16       0.346
  WS02006245           JUNCTION      0.00   361.67     0  05:11           0        3.16       0.521
  WS02006247           JUNCTION      0.00   366.47     0  05:11           0        3.17       0.400
  WS02006248           JUNCTION      0.00   371.61     0  07:41           0        3.22       0.266
  WS02006249           JUNCTION      0.00   428.60     0  06:19           0        3.67       0.531
  WS02006239           JUNCTION      0.00   329.21     0  05:12           0        3.25       0.261
  WS02006251           JUNCTION      0.08   411.75     0  03:50     0.00222        3.73       0.452
  WS02006252           JUNCTION      0.00   400.00     0  03:50           0        2.76       0.021
  WS02006253           JUNCTION      5.06   289.19     0  01:32      0.0186       0.971       1.466
  WS02006256           JUNCTION      0.00   983.00     0  01:40           0        14.1      -0.009
  WS02004138           JUNCTION      0.00   380.00     0  00:00           0        10.5       0.061
  WS02004139           JUNCTION      0.32   395.85     0  00:00     0.00924        10.5       0.443
  WS02004407           JUNCTION      0.00  1019.45     0  01:34           0        11.3       0.094
  WS02006228           JUNCTION      0.00   976.73     0  01:34           0        11.4       0.120
  WS02006229           JUNCTION      0.00  1057.17     0  01:32           0        11.5       0.161
  WS02006280           JUNCTION      0.00   937.79     0  01:34           0        4.56       0.013
  WS02006284           JUNCTION      0.10   934.65     0  01:35     0.00275        4.56       0.018
  WS02006287           JUNCTION      0.00   934.66     0  01:35           0        4.56       0.019
  WSF200               JUNCTION      0.00  1000.98     0  01:36           0        11.2       0.059
  HS02004901           JUNCTION     48.29    48.29     0  01:31       0.205       0.205       0.865
  HS02004881           JUNCTION     19.22   196.54     0  01:33      0.0766       0.897       0.062
  HS02004876           JUNCTION     33.98   176.89     0  01:34       0.149       0.821       0.066
  HS02004870           JUNCTION     35.26   143.34     0  01:34       0.145       0.672       0.016
  HS02004862           JUNCTION     32.69   109.55     0  01:35       0.175       0.527       0.033
  HS02004856           JUNCTION     26.33    76.92     0  01:35       0.109       0.354       0.407
  HS02004852           JUNCTION      0.00    51.63     0  01:36           0       0.245       0.024
  HS02004848           JUNCTION     70.76    70.76     0  01:38         0.4         0.4       0.012
  HS02004842           JUNCTION      0.00    21.86     0  01:49           0       0.168       8.367
  HS02004837           JUNCTION     65.09    82.02     0  01:35       0.434        0.59       0.137
  HS02004830           JUNCTION      0.15    82.12     0  01:35     0.00432        0.58       0.213
  HS02004824           JUNCTION     81.60   164.05     0  01:38       0.463        1.04       0.052
  HS02004817           JUNCTION      0.60   166.61     0  01:39      0.0173        1.06       1.598
  HS02004807           JUNCTION     65.28   225.46     0  01:36       0.265        1.31       0.341
  HS02004802           JUNCTION      0.00   226.44     0  01:37           0        1.31       0.297
  HS02004799           JUNCTION     51.81   605.47     0  01:33       0.216        2.82       0.117
  HS02004792           JUNCTION    235.75   554.35     0  01:33        1.13        2.61       0.015
  HS02004788           JUNCTION     75.68   319.93     0  01:33       0.387        1.48       0.026
  HS02004785           JUNCTION      0.15   244.47     0  01:33     0.00432         1.1       0.046
  HS02004777           JUNCTION      0.03   244.67     0  01:32    0.000864         1.1       0.478
  HS02004770           JUNCTION    197.86   245.55     0  01:32       0.896         1.1       0.278
  HS02004480           JUNCTION      0.00   713.03     0  01:33           0        3.28       0.024
  HS02004479           JUNCTION      0.00   107.71     0  01:33           0       0.464       0.160
  HS02004478           JUNCTION      0.00   934.58     0  01:35           0        4.57       0.007
  YS02001745           JUNCTION    667.30   667.30     0  03:01        5.95        5.95       0.177
  YS02001748           JUNCTION      0.04   667.52     0  03:01      0.0013        5.94       0.374
  YS02001751           JUNCTION      0.01   667.80     0  03:01    0.000317        5.92       0.410
  YS02001754           JUNCTION      0.26   668.68     0  03:01     0.00749        5.91       0.411
  YS02001762           JUNCTION      0.00   368.48     0  01:32           0        3.33       0.641
  YS02001765           JUNCTION      0.00   368.54     0  01:35           0        3.33       0.734
  YS02001767           JUNCTION      0.54   372.15     0  01:26      0.0154        3.35       1.070
  YS02001770           JUNCTION    751.30  1102.15     0  03:01        6.47        8.59       0.364
  YS02001774           JUNCTION      0.00   852.11     0  02:51           0        6.85       0.361
  YS02001779           JUNCTION      0.01   851.73     0  02:51    0.000144        6.82       0.227
  YS02001882           JUNCTION      0.00    36.84     0  01:29           0      0.0207      11.072
  YS02001884           JUNCTION      0.00    64.45     0  01:29           0      0.0587      11.887
  YS02001759           JUNCTION    717.99   899.35     0  01:41        6.04        7.22       0.312
  YS02001887           JUNCTION    814.61   815.92     0  01:57         6.7        6.74       0.125
  YS02001890           JUNCTION      0.00   815.79     0  01:57           0        6.69       0.138
  YS02001898           JUNCTION      0.00   597.23     0  01:32           0         5.4       0.045
  YS02001901           JUNCTION      0.00   602.11     0  01:32           0         5.4       0.127
  YS02001904           JUNCTION      0.00   604.18     0  01:32           0        5.39       0.109
  YS02001907           JUNCTION      0.00  1427.98     0  03:01           0          14       0.171
  YS02001910           JUNCTION      0.00   911.29     0  03:01           0        8.64       0.140
  YS02001915           JUNCTION    557.90   911.10     0  03:01        4.89         8.7       0.069
  YS02001918           JUNCTION      0.00   436.71     0  01:32           0        3.84       0.040
  YS02001619           JUNCTION    574.80   574.80     0  03:01        5.03        5.03       0.236
  YS02001629           JUNCTION      0.00   283.09     0  01:26           0         2.1       1.349
  YS02001641           JUNCTION      0.00   456.53     0  01:28           0        6.18       0.337
  YS02001644           JUNCTION    644.82  1924.40     0  03:01        5.77        20.4       0.133
  YS02001652           JUNCTION      0.00   639.59     0  03:01           0        5.22       0.437
  YS02001655           JUNCTION      0.15   639.40     0  03:01     0.00443        5.25       0.480
  YS02001920           JUNCTION      2.87   404.30     0  01:33      0.0827        3.82       0.086
  YS02001923           JUNCTION      0.04   403.12     0  01:33     0.00109        3.72       0.049
  YS02001926           JUNCTION      0.05   463.64     0  01:33      0.0015        3.69       0.071
  YS02001929           JUNCTION    352.81   352.81     0  03:01        3.67        3.67       0.006
  YS02001658           JUNCTION      0.00   638.98     0  03:01           0        5.27       0.457
  YS02001661           JUNCTION      0.00   801.19     0  01:41           0         5.5       0.070
  YS02001664           JUNCTION    638.31   638.31     0  03:01        5.27         5.5       0.082
  YS02001622           JUNCTION      0.00   574.87     0  03:01           0        5.03       0.631
  YS02001633           JUNCTION    658.84   658.84     0  03:01        5.93        7.12       0.449
  YS02001649           JUNCTION      0.00  1423.44     0  03:01           0        12.2       0.300
  YS02001757           JUNCTION      0.00  2182.79     0  01:41           0          13       0.709
  YS02001895           JUNCTION      0.00   593.47     0  01:32           0         5.4       0.109
  YS02001625           JUNCTION      0.00   801.49     0  03:01           0        5.88       0.682
  YS02163301           JUNCTION      0.00   277.02     0  01:26           0         2.1       1.139
  YS02163601           JUNCTION      0.11   459.89     0  01:28     0.00317        6.18       0.483
  YS02164001           JUNCTION      0.00   458.40     0  01:28           0        6.17       0.324
  YS02001647           JUNCTION      0.00   846.70     0  02:47           0        9.32       0.303
  YSB1154              JUNCTION     59.56    59.56     0  01:33        0.26        0.26       0.555
  YSB6556              JUNCTION      0.00    59.44     0  01:33           0       0.261       0.487
  YSB1174              JUNCTION     51.10    51.10     0  01:30       0.195       0.195       0.657
  YSB1171              JUNCTION      0.00   108.25     0  01:32           0       0.462       1.393
  YS02006553           JUNCTION      0.00   731.53     0  04:02           0        7.65       0.199
  YS02006561           JUNCTION      0.00  1062.77     0  01:32           0        13.9       0.005
  YS02006556           JUNCTION      0.00   731.36     0  04:02           0        7.66       0.139
  YS02006558           JUNCTION    751.16  1062.25     0  01:32        6.29        13.9       0.035
  YS02001783           JUNCTION      0.00  1024.12     0  01:31           0        13.9       0.017
  YS02001784           JUNCTION      1.06  1025.26     0  01:31      0.0305        13.9       0.028
  YS02001786           JUNCTION      0.06  1025.23     0  01:31     0.00162        13.9       0.026
  YS02001788           JUNCTION      0.07  1004.80     0  01:31     0.00204        13.9       0.017
  YS02001790           JUNCTION      0.15   984.24     0  02:50     0.00446        13.9       0.016
  YS02001791           JUNCTION      0.00   984.22     0  01:51           0        13.9       0.004
  YS02001793           JUNCTION      0.00   984.58     0  02:49           0        13.9      -0.013
  WSC                  OUTFALL       0.00  1374.27     0  01:47           0          22       0.000
  JK-storage           STORAGE       0.00  1024.24     0  01:30           0        14.1      -6.679
  CC-storage           STORAGE       0.00  2182.40     0  01:41           0        6.67       0.936
  XR-storage           STORAGE    1680.85  1680.85     0  03:01        21.6        22.2       0.000
  
  
  **********************
  Node Surcharge Summary
  **********************
  
  Surcharging occurs when water rises above the top of the highest conduit.
  ---------------------------------------------------------------------
                                               Max. Height   Min. Depth
                                   Hours       Above Crown    Below Rim
  Node                 Type      Surcharged         Meters       Meters
  ---------------------------------------------------------------------
  WS02004401           JUNCTION        1.72          0.463        1.197
  WS02004402           JUNCTION        1.73          0.414        1.326
  WS02004403           JUNCTION        1.74          0.367        1.663
  WS02004404           JUNCTION        1.83          0.391        2.389
  WS02004406           JUNCTION        1.79          0.249        2.201
  WS02004409           JUNCTION        0.13          0.042        2.318
  WS02004410           JUNCTION        0.01          0.008        2.532
  WS02004413           JUNCTION        0.86          0.050        2.150
  WS02004405           JUNCTION        1.81          0.360        2.440
  WS02006109           JUNCTION        3.64          1.092        0.728
  WS02006110           JUNCTION        2.60          0.876        0.974
  WS02006111           JUNCTION        0.65          0.467        1.403
  WS02006112           JUNCTION        2.72          0.899        0.781
  WS02006113           JUNCTION        0.71          0.626        1.304
  WS02006115           JUNCTION        1.46          0.520        1.730
  WS02006116           JUNCTION        1.52          0.471        1.819
  WS02006230           JUNCTION        2.43          1.057        0.513
  WS02006231           JUNCTION        2.62          1.032        0.498
  WS02006232           JUNCTION        3.57          1.112        0.368
  WS02006234           JUNCTION        2.99          0.963        0.277
  WS02006235           JUNCTION        3.23          0.963        0.327
  WS02006238           JUNCTION        3.29          0.970        0.460
  WS02006240           JUNCTION        2.76          0.794        0.596
  WS02006242           JUNCTION        2.83          0.775        0.045
  WS02006243           JUNCTION        2.57          0.615        0.155
  WS02006245           JUNCTION        2.47          0.530        0.320
  WS02006247           JUNCTION        2.37          0.504        0.256
  WS02006248           JUNCTION        2.17          0.380        0.000
  WS02006249           JUNCTION        2.19          0.390        0.000
  WS02006239           JUNCTION        2.95          0.866        0.424
  WS02006251           JUNCTION        1.35          0.926        0.254
  WS02006252           JUNCTION        2.33          1.100        0.000
  WS02006253           JUNCTION        1.61          0.900        1.580
  WS02006256           JUNCTION        7.23          2.050        0.000
  WS02006228           JUNCTION        3.63          1.280        0.920
  WS02006229           JUNCTION        0.01          0.026        1.044
  HS02004817           JUNCTION        0.46          0.067        1.673
  YS02001745           JUNCTION        1.11          0.293        1.057
  YS02001748           JUNCTION        6.52          0.784        0.406
  YS02001751           JUNCTION        6.53          0.770        0.430
  YS02001754           JUNCTION        6.54          0.886        0.264
  YS02001762           JUNCTION        6.57          1.076        0.074
  YS02001765           JUNCTION        6.56          1.021        0.079
  YS02001767           JUNCTION        6.56          0.977        0.053
  YS02001770           JUNCTION        6.56          0.920        0.000
  YS02001774           JUNCTION        6.57          1.046        0.004
  YS02001779           JUNCTION        6.54          0.680        0.000
  YS02001882           JUNCTION        2.55          0.696        0.134
  YS02001884           JUNCTION        2.57          0.725        0.145
  YS02001759           JUNCTION        6.58          1.121        0.089
  YS02001887           JUNCTION        2.63          0.792        0.158
  YS02001890           JUNCTION        2.65          0.760        0.000
  YS02001898           JUNCTION        2.53          0.674        0.066
  YS02001901           JUNCTION        2.60          0.807        0.063
  YS02001904           JUNCTION        2.59          0.729        0.121
  YS02001907           JUNCTION        3.14          0.950        0.000
  YS02001910           JUNCTION        2.68          0.990        0.110
  YS02001915           JUNCTION        2.55          0.925        0.075
  YS02001918           JUNCTION        2.41          0.810        0.000
  YS02001619           JUNCTION        6.54          0.610        0.000
  YS02001629           JUNCTION        6.54          0.470        0.000
  YS02001641           JUNCTION        6.57          0.958        0.142
  YS02001644           JUNCTION        6.57          0.920        0.000
  YS02001652           JUNCTION        6.54          1.014        0.116
  YS02001655           JUNCTION        6.53          0.971        0.229
  YS02001920           JUNCTION        2.43          1.102        0.038
  YS02001923           JUNCTION        0.01          0.800        0.020
  YS02001926           JUNCTION        0.01          0.900        0.000
  YS02001929           JUNCTION        0.01          0.780        0.000
  YS02001658           JUNCTION        6.52          0.757        0.543
  YS02001661           JUNCTION        1.45          0.768        0.622
  YS02001622           JUNCTION        6.54          0.620        0.000
  YS02001633           JUNCTION        6.56          0.960        0.100
  YS02001649           JUNCTION        6.57          1.050        0.000
  YS02001757           JUNCTION        6.59          1.210        0.000
  YS02001895           JUNCTION        2.53          0.662        0.088
  YS02001625           JUNCTION        6.55          0.780        0.000
  YS02163301           JUNCTION        6.56          0.902        0.128
  YS02163601           JUNCTION        6.57          1.034        0.046
  YS02164001           JUNCTION        6.57          0.965        0.135
  YS02001647           JUNCTION        6.55          0.794        0.106
  YS02006553           JUNCTION        3.21          0.982        0.208
  YS02006561           JUNCTION        2.43          0.775        0.375
  YS02006556           JUNCTION        2.85          0.927        0.423
  YS02006558           JUNCTION        2.82          0.932        0.468
  YS02001783           JUNCTION        2.64          0.983        0.617
  YS02001784           JUNCTION        2.61          0.934        0.556
  YS02001786           JUNCTION        2.53          0.828        0.602
  YS02001788           JUNCTION        2.48          0.920        0.560
  YS02001790           JUNCTION        3.58          1.157        0.000
  YS02001791           JUNCTION        3.66          1.792        0.128
  YS02001793           JUNCTION        3.91          1.661        0.939
  
  
  *********************
  Node Flooding Summary
  *********************
  
  Flooding refers to all water that overflows a node, whether it ponds or not.
  --------------------------------------------------------------------------
                                                             Total   Maximum
                                 Maximum   Time of Max       Flood    Ponded
                        Hours       Rate    Occurrence      Volume     Depth
  Node                 Flooded       LPS   days hr:min    10^6 ltr    Meters
  --------------------------------------------------------------------------
  WS02006248              0.44    150.58      0  01:39       0.139     0.000
  WS02006249              1.54    365.96      0  01:32       0.530     0.000
  WS02006252              0.01     24.12      0  01:32       0.000     0.000
  WS02006256              4.88    835.03      0  01:40      10.328     0.000
  YS02001770              1.19    250.94      0  03:01       0.497     0.000
  YS02001779              4.59    851.44      0  02:50       6.802     0.000
  YS02001890              1.75    299.67      0  01:56       1.276     0.000
  YS02001907              2.28   1197.51      0  03:01       6.358     0.000
  YS02001918              0.01     88.28      0  01:33       0.000     0.000
  YS02001619              0.01     95.60      0  01:27       0.000     0.000
  YS02001629              0.01    229.80      0  01:27       0.002     0.000
  YS02001644              6.04   1924.36      0  03:01      19.507     0.000
  YS02001926              0.01     13.80      0  01:33       0.000     0.000
  YS02001929              0.01    264.47      0  01:33       0.001     0.000
  YS02001622              0.01    104.30      0  01:27       0.000     0.000
  YS02001649              1.42    576.69      0  03:01       1.981     0.000
  YS02001757              0.21     79.57      0  02:42       0.034     0.000
  YS02001625              2.99    801.48      0  03:01       4.633     0.000
  YS02001790              0.01    164.32      0  05:06       0.000     0.000
  JK-storage              0.99    690.27      0  01:32       0.918     0.000
  XR-storage              6.20   1300.69      0  03:01      10.747     0.000
  
  
  **********************
  Storage Volume Summary
  **********************
  
  --------------------------------------------------------------------------------------------------
                         Average     Avg  Evap Exfil       Maximum     Max    Time of Max    Maximum
                          Volume    Pcnt  Pcnt  Pcnt        Volume    Pcnt     Occurrence    Outflow
  Storage Unit           1000 m3    Full  Loss  Loss       1000 m3    Full    days hr:min        LPS
  --------------------------------------------------------------------------------------------------
  JK-storage               0.180      62     0     0         0.291     100       0  01:32     983.00
  CC-storage               3.443      22     0     0         4.119      26       0  03:12     400.00
  XR-storage               0.864      93     0     0         0.926     100       0  01:47     380.00
  
  
  ***********************
  Outfall Loading Summary
  ***********************
  
  ---------------------------------------------------------------------------------------------------------------------------------
                         Flow       Avg       Max       Total         Total         Total         Total         Total         Total
                         Freq      Flow      Flow      Volume           COD            SS            TN            TP         NH4-N
  Outfall Node           Pcnt       LPS       LPS    10^6 ltr            kg            kg            kg            kg            kg
  ---------------------------------------------------------------------------------------------------------------------------------
  WSC                   99.98    802.22   1374.27      22.025      2774.185      5076.904       135.674        15.085        79.633
  ---------------------------------------------------------------------------------------------------------------------------------
  System                99.98    802.22   1374.27      22.025      2774.185      5076.904       135.674        15.085        79.633
  
  
  ********************
  Link Flow Summary
  ********************
  
  -----------------------------------------------------------------------------
                                 Maximum  Time of Max   Maximum    Max/    Max/
                                  |Flow|   Occurrence   |Veloc|    Full    Full
  Link                 Type          LPS  days hr:min     m/sec    Flow   Depth
  -----------------------------------------------------------------------------
  WS02003066WSF200     CONDUIT   1000.98     0  01:36      3.18    0.17    0.33
  WS02006287WS02006284 CONDUIT    934.56     0  01:35      2.63    0.43    0.46
  WS02006284WS02006280 CONDUIT    937.79     0  01:34      2.86    0.39    0.44
  WS02006280WS02006229 CONDUIT    969.00     0  01:34      4.53    0.21    0.75
  WS02006229WS02006228 CONDUIT    976.73     0  01:34      1.94    3.24    1.00
  WS02006256WS02006235 CONDUIT    288.92     0  00:00      4.23    3.06    1.00
  WS02006253WS02006251 CONDUIT    287.29     0  01:32      0.83    0.86    1.00
  WS02006252WS02006251 CONDUIT    403.87     0  07:43      3.21    1.48    1.00
  WS02006251WS02006249 CONDUIT    428.60     0  06:19      1.13    1.24    1.00
  WS02006249WS02006248 CONDUIT    371.61     0  07:41      1.19    2.04    1.00
  WS02006248WS02006247 CONDUIT    366.47     0  05:11      1.17    0.80    1.00
  WS02006247WS02006245 CONDUIT    361.67     0  05:11      1.15    2.87    1.00
  WS02006245WS02006243 CONDUIT    356.65     0  05:11      1.20    1.05    1.00
  WS02006243WS02006242 CONDUIT    348.05     0  05:11      1.08    0.74    1.00
  WS02006242WS02006240 CONDUIT    339.06     0  07:02      1.02    1.35    1.00
  WS02006240WS02006239 CONDUIT    329.21     0  05:12      1.09    1.04    1.00
  WS02006239WS02006238 CONDUIT    328.87     0  07:44      0.98    1.05    1.00
  WS02006238WS02006235 CONDUIT    329.22     0  07:44      1.45    0.73    1.00
  WS02006235WS02006234 CONDUIT    524.01     0  07:43      1.36    5.53    1.00
  WS02006234WS02006232 CONDUIT    523.64     0  07:43      1.39    1.06    1.00
  WS02006232WS02006231 CONDUIT    523.70     0  07:44      1.36    1.10    1.00
  WS02006231WS02006230 CONDUIT    523.35     0  07:43      1.41    7.94    1.00
  WS02006230WS02006229 CONDUIT    537.13     0  07:43      1.40   11.95    1.00
  WS02006228WS02006109 CONDUIT    976.87     0  01:34      1.94    4.27    1.00
  WS02006116WS02004401 CONDUIT   1015.93     0  01:34      1.29    1.40    1.00
  WS02006115WS02006116 CONDUIT   1016.08     0  01:34      1.29    1.30    1.00
  WS02006113WS02006111 CONDUIT    977.70     0  01:34      2.66    1.17    1.00
  WS02006112WS02006115 CONDUIT   1016.07     0  01:34      1.29    0.60    1.00
  WS02006111WS02006112 CONDUIT    977.88     0  01:34      1.95    0.46    1.00
  WS02006110WS02006113 CONDUIT    977.90     0  01:34      1.95    0.89    1.00
  WS02006109WS02006110 CONDUIT    978.00     0  01:34      1.95    1.88    1.00
  WS02004411WS02004412 CONDUIT    993.92     0  01:36      1.29    1.41    0.96
  WS02004401WS02004402 CONDUIT   1016.33     0  01:34      1.29    1.22    1.00
  WS02004413WS02003067 CONDUIT    996.36     0  01:35      1.63    0.43    0.73
  WS02004412WS02004413 CONDUIT    994.80     0  01:35      1.28    0.67    0.97
  WS02004410WS02004411 CONDUIT    993.54     0  01:36      1.27    1.36    0.99
  WS02004409WS02004410 CONDUIT   1008.67     0  01:34      1.29    1.30    1.00
  WS02004407WS02004409 CONDUIT   1016.30     0  01:34      1.85    0.36    0.71
  WS02004406WS02004407 CONDUIT   1019.45     0  01:34      1.72    0.46    0.71
  WS02004405WS02004406 CONDUIT   1018.65     0  01:34      1.30    2.01    1.00
  WS02004404WS02004405 CONDUIT   1018.66     0  01:34      1.30    9.98    1.00
  WS02004403WS02004404 CONDUIT   1017.50     0  01:34      1.30    0.74    1.00
  WS02004402WS02004403 CONDUIT   1017.24     0  01:34      1.30    1.46    1.00
  WS02004139WS02001211 CONDUIT    384.38     0  03:16      0.90    0.49    0.65
  WS02004138WS02004139 CONDUIT    395.52     0  00:00      3.64    0.08    0.47
  WS02003067WS02003066 CONDUIT   1000.10     0  01:35      1.72    0.32    0.51
  WS02001213WS02003059 CONDUIT    404.99     0  03:16      0.89    0.67    0.88
  WS02001212WS02001213 CONDUIT    399.91     0  03:16      1.32    0.62    0.57
  WS02001211WS02001212 CONDUIT    396.10     0  03:15      0.78    0.30    0.72
  WS02003072WS02003073 CONDUIT   1372.50     0  01:46      1.98    2.96    0.59
  WS02003069WS02003072 CONDUIT   1372.57     0  01:46      1.84    0.66    0.63
  WS02003060WS02003069 CONDUIT   1372.24     0  01:45      2.04    0.54    0.57
  WS02003059WS02003060 CONDUIT    411.26     0  03:15      0.95    0.27    0.78
  HS02004901HS02004770 CONDUIT     47.75     0  01:32      0.11    0.18    0.61
  HS02004876HS02004881 CONDUIT    177.76     0  01:33      1.41    1.89    0.20
  HS02004870HS02004876 CONDUIT    143.30     0  01:35      0.95    0.10    0.22
  HS02004842HS02004848 CONDUIT     21.86     0  01:49      0.09    0.01    0.35
  HS02004837HS02004842 CONDUIT     22.38     0  01:49      0.42    0.01    0.37
  HS02004830HS02004837 CONDUIT     81.97     0  01:35      0.70    0.08    0.18
  HS02004824HS02004830 CONDUIT     82.88     0  01:37      0.63    0.11    0.25
  HS02004817HS02004824 CONDUIT    166.01     0  01:39      0.37    0.07    0.64
  HS02004770HS02004777 CONDUIT    244.64     0  01:32      0.57    0.45    0.62
  HS02004799HS02004480 CONDUIT    605.42     0  01:33      1.21    0.76    0.71
  HS02004792HS02004799 CONDUIT    554.25     0  01:33      1.36    0.34    0.58
  HS02004788HS02004792 CONDUIT    319.85     0  01:34      1.40    0.21    0.33
  HS02004785HS02004788 CONDUIT    244.45     0  01:33      1.02    1.84    0.34
  HS02004777HS02004785 CONDUIT    244.32     0  01:33      0.67    0.30    0.52
  HS02004480HS02004478 CONDUIT    712.97     0  01:33      1.74    3.00    0.59
  HS02004479HS02004480 CONDUIT    107.65     0  01:33      0.45    0.10    0.68
  HS02004862HS02004870 CONDUIT    109.57     0  01:36      0.90    0.12    0.17
  HS02004848HS02004852 CONDUIT     51.63     0  01:36      0.58    0.06    0.13
  HS02004856HS02004862 CONDUIT     76.86     0  01:35      0.67    0.08    0.16
  HS02004852HS02004856 CONDUIT     51.73     0  01:36      0.39    0.06    0.19
  HS02004802HS02004478 CONDUIT    227.64     0  01:38      0.57    0.20    0.58
  HS02004478WS02006287 CONDUIT    934.66     0  01:35      2.37    0.26    0.44
  HS02004817HS02004807 CONDUIT    166.71     0  01:39      0.30    0.10    0.81
  HS02004807HS02004802 CONDUIT    226.44     0  01:37      0.51    0.43    0.64
  YS02001759YS02001757 CONDUIT    899.39     0  01:41      1.15    0.64    1.00
  YS02001762YS02001759 CONDUIT    370.53     0  01:26      0.47    0.43    1.00
  YS02001765YS02001762 CONDUIT    368.48     0  01:32      0.47    0.35    1.00
  YS02001770YS02001767 CONDUIT    371.61     0  01:26      0.50    1.47    1.00
  YS02001774YS02001770 CONDUIT    852.11     0  02:51      1.08    0.54    1.00
  YS02001779YS02001774 CONDUIT    851.73     0  02:51      1.08    0.43    1.00
  YS02001649YS02001757 CONDUIT    889.67     0  01:39      1.13    0.54    1.00
  YS02001767YS02001765 CONDUIT    368.54     0  01:35      0.48    0.46    1.00
  YS02006561YS02001783 CONDUIT   1024.12     0  01:31      2.27    0.53    1.00
  YS02001783YS02001784 CONDUIT   1024.20     0  01:31      2.04    1.41    1.00
  YS02001784YS02001785 CONDUIT   1025.17     0  01:31      2.08    2.39    1.00
  YS02001788YS02001790 CONDUIT    984.09     0  02:50      2.48    0.73    1.00
  YS02001790YS02001791 CONDUIT    984.22     0  01:51      2.97    1.07    1.00
  YS02001791YS02001793 CONDUIT    984.58     0  02:49      5.82    0.42    1.00
  YS02001910YS02001907 CONDUIT    911.59     0  03:01      1.16    0.51    1.00
  YS02001786YS02001788 CONDUIT   1004.73     0  01:31      2.32    1.94    1.00
  YS02001915YS02001910 CONDUIT    911.29     0  03:01      1.16    0.45    1.00
  YS02001918YS02001915 CONDUIT    436.71     0  01:32      0.57    0.24    1.00
  YS02001923YS02001920 CONDUIT    403.08     0  01:33      0.91    0.18    1.00
  YS02001926YS02001923 CONDUIT    463.59     0  01:33      1.01    0.66    1.00
  YS02001929YS02001926 CONDUIT    352.54     0  03:01      1.07    0.17    1.00
  YS02001920YS02001918 CONDUIT    401.63     0  01:34      0.86    0.39    1.00
  YS02001629YS02163301 CONDUIT    283.09     0  01:26      0.36    0.35    1.00
  YS02001619YS02001622 CONDUIT    574.87     0  03:01      0.86    0.85    1.00
  YS02001622YS02001625 CONDUIT    575.16     0  03:01      0.73    0.31    1.00
  YS02001625YS02001629 CONDUIT    258.13     0  01:26      0.39    0.12    1.00
  YS02163301YS02001633 CONDUIT    277.02     0  01:26      0.35    0.26    1.00
  YS02163601YS02164001 CONDUIT    458.40     0  01:28      0.58    0.41    1.00
  YS02164001YS02001641 CONDUIT    456.53     0  01:28      0.58    0.62    1.00
  YS02001641YS02001644 CONDUIT    458.24     0  01:28      0.58    1.48    1.00
  YS02001647YS02001649 CONDUIT    846.70     0  02:47      1.08    0.45    1.00
  YS02006553YS02006556 CONDUIT    731.36     0  04:02      0.93    0.63    1.00
  YS02006556YS02006558 CONDUIT    732.48     0  04:02      0.93    0.58    1.00
  YSB6556YSB1171       CONDUIT     59.52     0  01:34      0.17    0.06    0.88
  YS02001907YS02006553 CONDUIT    731.53     0  04:02      0.81    0.86    1.00
  YS02006558YS02006561 CONDUIT   1062.77     0  01:32      3.77    2.35    1.00
  YS02001633YS02163601 CONDUIT    459.78     0  01:28      0.59    0.48    1.00
  YS02001644YS02001647 CONDUIT    846.70     0  02:47      1.08    0.50    1.00
  YS02001745YS02001748 CONDUIT    667.47     0  03:01      1.86    0.26    1.00
  YS02001748YS02001751 CONDUIT    667.79     0  03:01      1.39    0.34    1.00
  YS02001751YS02001754 CONDUIT    668.42     0  03:01      1.15    0.32    1.00
  YS02001754YS02001757 CONDUIT    669.10     0  03:01      0.85    0.27    1.00
  YS02001882YS02001884 CONDUIT     36.84     0  01:29      0.22    0.04    1.00
  YS02001884YS02001887 CONDUIT     64.45     0  01:29      0.16    0.09    1.00
  YS02001890YS02001895 CONDUIT    593.47     0  01:32      0.76    0.28    1.00
  YS02001895YS02001898 CONDUIT    597.23     0  01:32      0.76    1.04    1.00
  YS02001898YS02001901 CONDUIT    602.11     0  01:32      0.77    0.39    1.00
  YS02001901YS02001904 CONDUIT    604.18     0  01:32      0.77    0.94    1.00
  YS02001904YS02001907 CONDUIT    605.74     0  01:32      0.77    0.21    1.00
  YS02001887YS02001890 CONDUIT    815.79     0  01:57      1.04    1.40    1.00
  YS02001652YS02001649 CONDUIT    639.70     0  03:01      0.84    0.32    1.00
  YS02001655YS02001652 CONDUIT    639.59     0  03:01      1.25    0.31    1.00
  YS02001658YS02001655 CONDUIT    639.24     0  03:01      1.61    0.27    1.00
  YS02001661YS02001658 CONDUIT    638.98     0  03:01      1.99    0.25    1.00
  YS02001664YS02001661 CONDUIT    801.19     0  01:41      1.90    0.25    0.84
  YSB1154YSB6556       CONDUIT     59.44     0  01:33      0.17    0.11    0.84
  YSB1174YSB1171       CONDUIT     50.30     0  01:30      0.14    0.08    0.92
  YSB1171HS02004479    CONDUIT    107.71     0  01:33      0.54    0.07    0.78
  HS02004881HS02006253 CONDUIT    284.43     0  01:32      2.76    0.06    0.57
  YS02001793JiankangQianchi CONDUIT   1024.24     0  01:30     16.68    0.08    1.00
  YS02001757CaochengTiaoxuchi CONDUIT   2182.40     0  01:41      3.80    0.96    1.00
  WSF200WS02003060     CONDUIT   1003.85     0  01:36      2.25    0.22    0.45
  1                    CONDUIT   1374.27     0  01:47      3.62    0.48    0.49
  CC-Pump-1            PUMP       200.00     0  02:50              1.00
  CC-Pump-2            PUMP       200.00     0  03:50              1.00
  JK-Pump-1            PUMP       300.00     0  00:00              1.00
  JK-Pump-2            PUMP       683.00     0  01:40              1.00
  XR-Pump-1            PUMP        95.00     0  00:00              1.00
  XR-Pump-2            PUMP        95.00     0  00:00              1.00
  XR-Pump-3            PUMP        95.00     0  00:00              1.00
  XR-Pump-4            PUMP        95.00     0  00:00              1.00
  
  
  ***************************
  Flow Classification Summary
  ***************************
  
  -------------------------------------------------------------------------------------
                      Adjusted    ---------- Fraction of Time in Flow Class ---------- 
                       /Actual         Up    Down  Sub   Sup   Up    Down  Norm  Inlet 
  Conduit               Length    Dry  Dry   Dry   Crit  Crit  Crit  Crit  Ltd   Ctrl  
  -------------------------------------------------------------------------------------
  WS02003066WSF200        1.00   0.01  0.02  0.00  0.00  0.97  0.00  0.00  0.53  0.00
  WS02006287WS02006284    1.00   0.03  0.01  0.00  0.57  0.38  0.00  0.00  0.62  0.00
  WS02006284WS02006280    1.00   0.04  0.00  0.00  0.00  0.00  0.00  0.95  0.00  0.00
  WS02006280WS02006229    1.00   0.04  0.00  0.00  0.06  0.10  0.00  0.80  0.04  0.00
  WS02006229WS02006228    1.00   0.00  0.00  0.00  0.99  0.00  0.00  0.00  0.00  0.00
  WS02006256WS02006235    1.00   0.00  0.00  0.00  1.00  0.00  0.00  0.00  0.00  0.00
  WS02006253WS02006251    1.00   0.02  0.02  0.00  0.95  0.00  0.01  0.00  0.00  0.00
  WS02006252WS02006251    1.00   0.08  0.00  0.00  0.20  0.00  0.71  0.00  0.00  0.00
  WS02006251WS02006249    1.00   0.00  0.00  0.00  1.00  0.00  0.00  0.00  0.23  0.00
  WS02006249WS02006248    1.00   0.00  0.01  0.00  0.89  0.00  0.11  0.00  0.00  0.00
  WS02006248WS02006247    1.00   0.01  0.00  0.00  0.98  0.00  0.00  0.01  0.14  0.00
  WS02006247WS02006245    1.00   0.01  0.00  0.00  0.97  0.00  0.00  0.02  0.00  0.00
  WS02006245WS02006243    1.00   0.00  0.00  0.00  0.94  0.00  0.00  0.05  0.00  0.00
  WS02006243WS02006242    1.00   0.00  0.00  0.00  0.99  0.00  0.00  0.01  0.22  0.00
  WS02006242WS02006240    1.00   0.00  0.00  0.00  0.98  0.00  0.02  0.00  0.00  0.00
  WS02006240WS02006239    1.00   0.00  0.00  0.00  0.93  0.00  0.00  0.07  0.02  0.00
  WS02006239WS02006238    1.00   0.00  0.00  0.00  1.00  0.00  0.00  0.00  0.09  0.00
  WS02006238WS02006235    1.00   0.00  0.00  0.00  1.00  0.00  0.00  0.00  0.00  0.00
  WS02006235WS02006234    1.00   0.00  0.00  0.00  0.97  0.00  0.03  0.00  0.00  0.00
  WS02006234WS02006232    1.00   0.00  0.00  0.00  1.00  0.00  0.00  0.00  0.04  0.00
  WS02006232WS02006231    1.00   0.00  0.00  0.00  1.00  0.00  0.00  0.00  0.00  0.00
  WS02006231WS02006230    1.00   0.00  0.00  0.00  0.60  0.00  0.40  0.00  0.00  0.00
  WS02006230WS02006229    1.00   0.00  0.00  0.00  0.99  0.00  0.00  0.01  0.00  0.00
  WS02006228WS02006109    1.00   0.00  0.00  0.00  1.00  0.00  0.00  0.00  0.00  0.00
  WS02006116WS02004401    1.00   0.01  0.00  0.00  0.99  0.00  0.00  0.00  0.00  0.00
  WS02006115WS02006116    1.00   0.01  0.00  0.00  0.99  0.00  0.00  0.00  0.00  0.00
  WS02006113WS02006111    1.00   0.01  0.00  0.00  0.18  0.82  0.00  0.00  0.17  0.00
  WS02006112WS02006115    1.00   0.01  0.00  0.00  0.99  0.00  0.00  0.00  0.00  0.00
  WS02006111WS02006112    1.00   0.01  0.00  0.00  0.99  0.00  0.00  0.00  0.76  0.00
  WS02006110WS02006113    1.00   0.00  0.00  0.00  0.99  0.00  0.00  0.00  0.00  0.00
  WS02006109WS02006110    1.00   0.00  0.00  0.00  0.99  0.00  0.00  0.00  0.00  0.00
  WS02004411WS02004412    1.00   0.02  0.00  0.00  0.98  0.00  0.00  0.00  0.00  0.00
  WS02004401WS02004402    1.00   0.01  0.00  0.00  0.99  0.00  0.00  0.00  0.00  0.00
  WS02004413WS02003067    1.00   0.02  0.01  0.00  0.00  0.00  0.97  0.00  0.00  0.00
  WS02004412WS02004413    1.00   0.02  0.00  0.00  0.98  0.00  0.00  0.00  0.01  0.00
  WS02004410WS02004411    1.00   0.02  0.00  0.00  0.98  0.00  0.00  0.00  0.00  0.00
  WS02004409WS02004410    1.00   0.02  0.00  0.00  0.98  0.00  0.00  0.00  0.02  0.00
  WS02004407WS02004409    1.00   0.02  0.00  0.00  0.98  0.00  0.00  0.00  0.94  0.00
  WS02004406WS02004407    1.00   0.00  0.02  0.00  0.98  0.00  0.00  0.00  0.00  0.00
  WS02004405WS02004406    1.00   0.00  0.00  0.00  1.00  0.00  0.00  0.00  0.00  0.00
  WS02004404WS02004405    1.00   0.00  0.00  0.00  1.00  0.00  0.00  0.00  0.00  0.00
  WS02004403WS02004404    1.00   0.00  0.01  0.00  0.99  0.00  0.00  0.00  0.00  0.00
  WS02004402WS02004403    1.00   0.01  0.00  0.00  0.99  0.00  0.00  0.00  0.00  0.00
  WS02004139WS02001211    1.00   0.00  0.00  0.00  1.00  0.00  0.00  0.00  0.00  0.00
  WS02004138WS02004139    1.00   0.00  0.00  0.00  1.00  0.00  0.00  0.00  1.00  0.00
  WS02003067WS02003066    1.00   0.03  0.00  0.00  0.97  0.00  0.00  0.00  0.00  0.00
  WS02001213WS02003059    1.00   0.00  0.00  0.00  1.00  0.00  0.00  0.00  0.00  0.00
  WS02001212WS02001213    1.00   0.00  0.00  0.00  0.93  0.00  0.07  0.00  0.00  0.00
  WS02001211WS02001212    1.00   0.00  0.00  0.00  1.00  0.00  0.00  0.00  0.00  0.00
  WS02003072WS02003073    1.00   0.00  0.00  0.00  0.00  0.00  0.00  1.00  0.00  0.00
  WS02003069WS02003072    1.00   0.00  0.00  0.00  1.00  0.00  0.00  0.00  0.06  0.00
  WS02003060WS02003069    1.00   0.00  0.00  0.00  0.99  0.01  0.00  0.00  0.04  0.00
  WS02003059WS02003060    1.00   0.00  0.00  0.00  1.00  0.00  0.00  0.00  0.01  0.00
  HS02004901HS02004770    1.00   0.04  0.00  0.00  0.96  0.00  0.00  0.00  0.00  0.00
  HS02004876HS02004881    1.00   0.01  0.00  0.00  0.77  0.22  0.00  0.00  0.00  0.00
  HS02004870HS02004876    1.00   0.00  0.00  0.00  0.99  0.00  0.00  0.00  0.95  0.00
  HS02004842HS02004848    1.00   0.00  0.04  0.00  0.96  0.00  0.00  0.00  0.54  0.00
  HS02004837HS02004842    1.00   0.00  0.00  0.00  1.00  0.00  0.00  0.00  0.11  0.00
  HS02004830HS02004837    1.00   0.00  0.00  0.00  1.00  0.00  0.00  0.00  0.99  0.00
  HS02004824HS02004830    1.00   0.00  0.00  0.00  1.00  0.00  0.00  0.00  0.03  0.00
  HS02004817HS02004824    1.00   0.00  0.00  0.00  1.00  0.00  0.00  0.00  0.87  0.00
  HS02004770HS02004777    1.00   0.00  0.04  0.00  0.96  0.00  0.00  0.00  0.01  0.00
  HS02004799HS02004480    1.00   0.00  0.01  0.00  0.95  0.00  0.03  0.00  0.00  0.00
  HS02004792HS02004799    1.00   0.00  0.00  0.00  0.99  0.01  0.00  0.00  0.98  0.00
  HS02004788HS02004792    1.00   0.00  0.00  0.00  1.00  0.00  0.00  0.00  0.98  0.00
  HS02004785HS02004788    1.00   0.00  0.00  0.00  1.00  0.00  0.00  0.00  0.00  0.00
  HS02004777HS02004785    1.00   0.00  0.00  0.00  1.00  0.00  0.00  0.00  0.10  0.00
  HS02004480HS02004478    1.00   0.04  0.00  0.00  0.63  0.00  0.00  0.32  0.00  0.00
  HS02004479HS02004480    1.00   0.02  0.00  0.00  0.98  0.00  0.00  0.00  0.10  0.00
  HS02004862HS02004870    1.00   0.00  0.00  0.00  1.00  0.00  0.00  0.00  0.02  0.00
  HS02004848HS02004852    1.00   0.04  0.00  0.00  0.96  0.00  0.00  0.00  0.83  0.00
  HS02004856HS02004862    1.00   0.00  0.05  0.00  0.95  0.00  0.00  0.00  0.85  0.00
  HS02004852HS02004856    1.00   0.04  0.00  0.00  0.96  0.00  0.00  0.00  0.69  0.00
  HS02004802HS02004478    1.00   0.04  0.00  0.00  0.96  0.00  0.00  0.00  0.01  0.00
  HS02004478WS02006287    1.00   0.05  0.00  0.00  0.70  0.26  0.00  0.00  0.59  0.00
  HS02004817HS02004807    1.00   0.00  0.04  0.00  0.96  0.00  0.00  0.00  0.01  0.00
  HS02004807HS02004802    1.00   0.04  0.00  0.00  0.95  0.00  0.00  0.00  0.00  0.00
  YS02001759YS02001757    1.00   0.00  0.00  0.00  1.00  0.00  0.00  0.00  0.14  0.00
  YS02001762YS02001759    1.00   0.00  0.00  0.00  1.00  0.00  0.00  0.00  0.01  0.00
  YS02001765YS02001762    1.00   0.00  0.00  0.00  1.00  0.00  0.00  0.00  0.13  0.00
  YS02001770YS02001767    1.00   0.00  0.00  0.00  1.00  0.00  0.00  0.00  0.00  0.00
  YS02001774YS02001770    1.00   0.00  0.04  0.00  0.96  0.00  0.00  0.00  0.01  0.00
  YS02001779YS02001774    1.00   0.00  0.00  0.00  1.00  0.00  0.00  0.00  0.15  0.00
  YS02001649YS02001757    1.00   0.00  0.00  0.00  1.00  0.00  0.00  0.00  0.14  0.00
  YS02001767YS02001765    1.00   0.00  0.00  0.00  1.00  0.00  0.00  0.00  0.00  0.00
  YS02006561YS02001783    1.00   0.05  0.00  0.00  0.50  0.45  0.00  0.00  0.37  0.00
  YS02001783YS02001784    1.00   0.00  0.05  0.00  0.95  0.00  0.00  0.00  0.00  0.00
  YS02001784YS02001785    1.00   0.00  0.00  0.00  1.00  0.00  0.00  0.00  0.14  0.00
  YS02001788YS02001790    1.00   0.00  0.00  0.00  0.57  0.43  0.00  0.00  0.27  0.00
  YS02001790YS02001791    1.00   0.00  0.00  0.00  0.54  0.46  0.00  0.00  0.32  0.00
  YS02001791YS02001793    1.00   0.00  0.00  0.00  0.57  0.43  0.00  0.00  0.02  0.00
  YS02001910YS02001907    1.00   0.00  0.00  0.00  0.99  0.00  0.00  0.01  0.11  0.00
  YS02001786YS02001788    1.00   0.00  0.00  0.00  0.55  0.45  0.00  0.00  0.00  0.00
  YS02001915YS02001910    1.00   0.00  0.00  0.00  0.99  0.01  0.00  0.00  0.12  0.00
  YS02001918YS02001915    1.00   0.00  0.00  0.00  0.99  0.01  0.00  0.00  0.45  0.00
  YS02001923YS02001920    1.00   0.00  0.00  0.00  1.00  0.00  0.00  0.00  0.66  0.00
  YS02001926YS02001923    1.00   0.00  0.03  0.00  0.33  0.00  0.64  0.00  0.00  0.00
  YS02001929YS02001926    1.00   0.00  0.04  0.00  0.96  0.00  0.00  0.00  0.56  0.00
  YS02001920YS02001918    1.00   0.00  0.00  0.00  1.00  0.00  0.00  0.00  0.00  0.00
  YS02001629YS02163301    1.00   0.04  0.00  0.00  0.95  0.00  0.00  0.00  0.00  0.00
  YS02001619YS02001622    1.00   0.04  0.00  0.00  0.96  0.00  0.00  0.00  0.00  0.00
  YS02001622YS02001625    1.00   0.04  0.00  0.00  0.96  0.00  0.00  0.00  0.02  0.00
  YS02001625YS02001629    1.00   0.04  0.01  0.00  0.94  0.00  0.01  0.00  0.00  0.00
  YS02163301YS02001633    1.00   0.00  0.04  0.00  0.96  0.00  0.00  0.00  0.00  0.00
  YS02163601YS02164001    1.00   0.00  0.03  0.00  0.97  0.00  0.00  0.00  0.00  0.00
  YS02164001YS02001641    1.00   0.00  0.03  0.00  0.97  0.00  0.00  0.00  0.05  0.00
  YS02001641YS02001644    1.00   0.00  0.00  0.00  1.00  0.00  0.00  0.00  0.00  0.00
  YS02001647YS02001649    1.00   0.00  0.05  0.00  0.95  0.00  0.00  0.00  0.01  0.00
  YS02006553YS02006556    1.00   0.01  0.00  0.00  0.99  0.00  0.00  0.00  0.03  0.00
  YS02006556YS02006558    1.00   0.00  0.00  0.00  1.00  0.00  0.00  0.00  0.00  0.00
  YSB6556YSB1171          1.00   0.02  0.02  0.00  0.96  0.00  0.00  0.00  0.00  0.00
  YS02001907YS02006553    1.00   0.00  0.01  0.00  0.99  0.00  0.00  0.00  0.00  0.00
  YS02006558YS02006561    1.00   0.05  0.00  0.00  0.33  0.63  0.00  0.00  0.37  0.00
  YS02001633YS02163601    1.00   0.00  0.00  0.00  1.00  0.00  0.00  0.00  0.14  0.00
  YS02001644YS02001647    1.00   0.00  0.05  0.00  0.95  0.00  0.00  0.00  0.00  0.00
  YS02001745YS02001748    1.00   0.00  0.00  0.00  0.93  0.00  0.00  0.07  0.00  0.00
  YS02001748YS02001751    1.00   0.00  0.00  0.00  0.98  0.02  0.00  0.00  0.13  0.00
  YS02001751YS02001754    1.00   0.00  0.00  0.00  0.95  0.00  0.00  0.05  0.01  0.00
  YS02001754YS02001757    1.00   0.00  0.00  0.00  1.00  0.00  0.00  0.00  0.15  0.00
  YS02001882YS02001884    1.00   0.04  0.00  0.00  0.95  0.00  0.00  0.00  0.00  0.00
  YS02001884YS02001887    1.00   0.02  0.01  0.00  0.96  0.00  0.00  0.00  0.00  0.00
  YS02001890YS02001895    1.00   0.00  0.04  0.00  0.95  0.00  0.00  0.00  0.00  0.00
  YS02001895YS02001898    1.00   0.05  0.00  0.00  0.95  0.00  0.01  0.00  0.00  0.00
  YS02001898YS02001901    1.00   0.05  0.00  0.00  0.95  0.00  0.00  0.00  0.00  0.00
  YS02001901YS02001904    1.00   0.05  0.00  0.00  0.95  0.00  0.00  0.00  0.00  0.00
  YS02001904YS02001907    1.00   0.00  0.05  0.00  0.95  0.00  0.00  0.00  0.00  0.00
  YS02001887YS02001890    1.00   0.00  0.00  0.00  0.99  0.00  0.01  0.00  0.00  0.00
  YS02001652YS02001649    1.00   0.00  0.00  0.00  1.00  0.00  0.00  0.00  0.14  0.00
  YS02001655YS02001652    1.00   0.00  0.00  0.00  0.95  0.00  0.00  0.05  0.01  0.00
  YS02001658YS02001655    1.00   0.00  0.04  0.00  0.94  0.02  0.00  0.00  0.01  0.00
  YS02001661YS02001658    1.00   0.04  0.00  0.00  0.93  0.03  0.00  0.00  0.00  0.00
  YS02001664YS02001661    1.00   0.04  0.00  0.00  0.93  0.03  0.00  0.00  0.06  0.00
  YSB1154YSB6556          1.00   0.04  0.00  0.00  0.96  0.00  0.00  0.00  0.01  0.00
  YSB1174YSB1171          1.00   0.02  0.01  0.00  0.97  0.00  0.00  0.00  0.00  0.00
  YSB1171HS02004479       1.00   0.02  0.00  0.00  0.98  0.00  0.00  0.00  0.09  0.00
  HS02004881HS02006253    1.00   0.02  0.00  0.00  0.62  0.03  0.00  0.33  0.51  0.00
  YS02001793JiankangQianchi    1.00   0.00  0.00  0.00  0.74  0.26  0.00  0.00  0.28  0.00
  YS02001757CaochengTiaoxuchi    1.00   0.00  0.06  0.00  0.91  0.03  0.00  0.00  0.00  0.00
  WSF200WS02003060        1.00   0.00  0.01  0.00  0.98  0.01  0.00  0.00  0.46  0.00
  1                       1.00   0.00  0.00  0.00  0.00  1.00  0.00  0.00  0.53  0.00
  
  
  *************************
  Conduit Surcharge Summary
  *************************
  
  ----------------------------------------------------------------------------
                                                           Hours        Hours 
                         --------- Hours Full --------   Above Full   Capacity
  Conduit                Both Ends  Upstream  Dnstream   Normal Flow   Limited
  ----------------------------------------------------------------------------
  WS02006280WS02006229        0.01      0.01      0.01      0.01         0.01
  WS02006229WS02006228        3.63      3.67      3.63      4.69         3.62
  WS02006256WS02006235        6.10      6.11      7.23      5.05         0.01
  WS02006253WS02006251        2.11      2.11      2.14      0.01         0.01
  WS02006252WS02006251        1.56      1.56      2.33      1.08         0.01
[...]
  YS02001649YS02001757        6.57      6.57      6.59      0.01         0.01
  YS02001767YS02001765        6.56      6.56      6.56      0.01         0.01
  YS02006561YS02001783        2.43      2.43      2.64      0.01         0.01
  YS02001783YS02001784        2.61      2.64      2.61      2.89         2.61
  YS02001784YS02001785        2.53      2.61      2.53      3.60         2.53
  YS02001788YS02001790        2.48      2.48      3.57      0.01         0.01
  YS02001790YS02001791        3.57      3.57      3.66      2.58         2.56
  YS02001791YS02001793        3.66      3.66      4.00      0.01         0.01
  YS02001910YS02001907        2.68      2.68      3.14      0.01         0.01
  YS02001786YS02001788        2.48      2.53      2.48      3.27         2.48
  YS02001915YS02001910        2.55      2.55      2.68      0.01         0.01
  YS02001918YS02001915        2.41      2.41      2.55      0.01         0.01
  YS02001923YS02001920        2.25      2.25      2.43      0.01         0.01
  YS02001926YS02001923        0.01      0.01      0.01      0.01         0.01
  YS02001929YS02001926        0.01      0.01      0.01      0.01         0.01
  YS02001920YS02001918        2.41      2.41      2.43      0.01         0.01
  YS02001629YS02163301        6.55      6.55      6.56      0.01         0.01
  YS02001619YS02001622        6.54      6.54      6.54      0.01         0.03
  YS02001622YS02001625        6.54      6.54      6.55      0.01         0.01
  YS02001625YS02001629        6.54      6.54      6.55      0.01         0.01
  YS02163301YS02001633        6.56      6.56      6.57      0.01         0.01
  YS02163601YS02164001        6.57      6.57      6.57      0.01         0.01
  YS02164001YS02001641        6.56      6.57      6.57      0.01         0.01
  YS02001641YS02001644        6.57      6.57      6.57      3.17         3.23
  YS02001647YS02001649        6.55      6.55      6.57      0.01         0.01
  YS02006553YS02006556        2.85      2.85      3.21      0.01         0.01
  YS02006556YS02006558        2.93      2.93      3.24      0.01         0.01
  YSB6556YSB1171              0.01      0.01      0.58      0.01         0.01
  YS02001907YS02006553        3.63      3.63      3.82      0.01         0.01
  YS02006558YS02006561        2.50      2.82      2.50      3.49         2.50
  YS02001633YS02163601        6.56      6.56      6.57      0.01         0.01
  YS02001644YS02001647        6.55      6.55      6.57      0.01         0.01
  YS02001745YS02001748        1.11      1.11      6.52      0.01         0.01
  YS02001748YS02001751        6.52      6.52      6.53      0.01         0.01
  YS02001751YS02001754        6.53      6.53      6.54      0.01         0.01
  YS02001754YS02001757        6.55      6.55      6.59      0.01         0.01
  YS02001882YS02001884        2.55      2.55      2.57      0.01         0.01
  YS02001884YS02001887        2.61      2.61      2.63      0.01         0.01
  YS02001890YS02001895        2.53      2.53      2.69      0.01         0.01
  YS02001895YS02001898        2.53      2.53      2.53      0.01         0.01
  YS02001898YS02001901        2.54      2.54      2.60      0.01         0.01
  YS02001901YS02001904        2.59      2.59      2.60      0.01         0.01
  YS02001904YS02001907        2.59      2.59      3.21      0.01         0.01
  YS02001887YS02001890        2.65      2.65      2.67      1.66         0.01
  YS02001652YS02001649        6.54      6.54      6.57      0.01         0.01
  YS02001655YS02001652        6.53      6.53      6.54      0.01         0.01
  YS02001658YS02001655        6.52      6.52      6.53      0.01         0.01
  YS02001661YS02001658        1.44      1.44      6.52      0.01         0.01
  YS02001664YS02001661        0.01      0.01      2.42      0.01         0.01
  YSB1174YSB1171              0.01      0.01      0.32      0.01         0.01
  HS02004881HS02006253        0.01      0.01      1.61      0.01         0.01
  YS02001793JiankangQianchi        3.91      3.91      5.16      0.01         0.01
  YS02001757CaochengTiaoxuchi        6.15      6.15      6.59      0.01         0.01
  
  
  ***************
  Pumping Summary
  ***************
  
  ---------------------------------------------------------------------------------------------------------
                                                  Min       Avg       Max     Total     Power    % Time Off
                        Percent   Number of      Flow      Flow      Flow    Volume     Usage    Pump Curve
  Pump                 Utilized   Start-Ups       LPS       LPS       LPS  10^6 ltr     Kw-hr    Low   High
  ---------------------------------------------------------------------------------------------------------
  CC-Pump-1               49.96           8      0.00    129.83    200.00     1.860      1.73    0.0    0.0
  CC-Pump-2               24.98           5      0.00    109.96    200.00     0.900      1.13    0.0    0.0
  JK-Pump-1               66.65           4      0.00    258.51    300.00     4.860     61.08    0.0    0.0
  JK-Pump-2               60.40           3      0.00    523.39    683.00     9.276    100.29    0.0   98.2
  XR-Pump-1              100.00           1      0.00     95.00     95.00     2.736     21.18    0.0    0.0
  XR-Pump-2               97.92           2      0.00     94.46     95.00     2.622     18.73    0.0    0.0
  XR-Pump-3               97.92           2      0.00     92.49     95.00     2.565     17.68    0.0    0.0
  XR-Pump-4               97.92           2      0.00     92.49     95.00     2.565     17.68    0.0    0.0
  
  
  ***************************
  Link Pollutant Load Summary
  ***************************
  
  ------------------------------------------------------------------------------------------
                                 COD            SS            TN            TP         NH4-N
  Link                            kg            kg            kg            kg            kg
  ------------------------------------------------------------------------------------------
  WS02003066WSF200          1305.519      2553.724        30.956         2.569        15.842
  WS02006287WS02006284       663.964      1310.559        17.371         1.543         9.092
  WS02006284WS02006280       664.425      1311.275        17.420         1.549         9.123
  WS02006280WS02006229       664.502      1311.523        17.418         1.549         9.122
  WS02006229WS02006228      1298.254      2540.145        30.255         2.474        15.405
  WS02006256WS02006235       306.040       585.462         6.467         0.481         3.210
  WS02006253WS02006251       130.199       263.907         2.731         0.197         1.331
  WS02006252WS02006251       323.768       636.191         6.100         0.421         2.935
  WS02006251WS02006249       442.244       877.639         8.608         0.603         4.159
  WS02006249WS02006248       368.690       727.000         7.195         0.505         3.480
  WS02006248WS02006247       373.278       735.748         7.306         0.515         3.539
  WS02006247WS02006245       371.184       730.906         7.277         0.513         3.526
  WS02006245WS02006243       369.258       726.478         7.248         0.512         3.514
  WS02006243WS02006242       368.194       723.398         7.245         0.513         3.515
  WS02006242WS02006240       367.273       720.272         7.250         0.515         3.522
  WS02006240WS02006239       367.655       719.952         7.278         0.518         3.538
  WS02006239WS02006238       369.417       722.507         7.332         0.523         3.568
  WS02006238WS02006235       371.128       725.486         7.365         0.525         3.583
  WS02006235WS02006234       642.622      1246.174        13.049         0.943         6.393
  WS02006234WS02006232       645.234      1251.327        13.123         0.950         6.433
  WS02006232WS02006231       647.969      1256.880        13.196         0.957         6.472
  WS02006231WS02006230       651.308      1263.851        13.276         0.965         6.513
  WS02006230WS02006229       655.518      1272.530        13.372         0.973         6.563
  WS02006228WS02006109      1297.327      2538.328        30.234         2.472        15.394
  WS02006116WS02004401      1325.585      2591.323        31.397         2.602        16.063
  WS02006115WS02006116      1327.596      2595.220        31.440         2.605        16.085
  WS02006113WS02006111      1303.701      2548.128        31.000         2.571        15.879
  WS02006112WS02006115      1329.393      2598.628        31.493         2.610        16.114
  WS02006111WS02006112      1302.726      2546.069        30.976         2.568        15.866
  WS02006110WS02006113      1304.349      2549.177        31.027         2.573        15.894
  WS02006109WS02006110      1305.366      2550.882        31.070         2.578        15.919
  WS02004411WS02004412      1310.931      2563.424        31.132         2.586        15.939
  WS02004401WS02004402      1323.848      2588.032        31.349         2.598        16.037
  WS02004413WS02003067      1307.050      2556.467        30.999         2.573        15.866
  WS02004412WS02004413      1308.815      2559.616        31.066         2.580        15.904
  WS02004410WS02004411      1312.852      2566.934        31.185         2.590        15.967
  WS02004409WS02004410      1314.667      2570.278        31.235         2.595        15.994
  WS02004407WS02004409      1316.436      2573.581        31.277         2.598        16.015
  WS02004406WS02004407      1317.153      2574.930        31.285         2.598        16.018
  WS02004405WS02004406      1319.161      2578.659        31.346         2.604        16.052
  WS02004404WS02004405      1320.996      2582.268        31.359         2.603        16.054
  WS02004403WS02004404      1320.762      2582.164        31.272         2.591        15.997
  WS02004402WS02004403      1322.139      2584.761        31.311         2.595        16.018
  WS02004139WS02001211      1327.301      2301.262        89.799        10.628        54.406
  WS02004138WS02004139      1332.852      2310.803        90.170        10.671        54.630
  WS02003067WS02003066      1305.862      2554.329        30.967         2.570        15.849
  WS02001213WS02003059      1362.648      2356.358        93.552        11.103        56.768
  WS02001212WS02001213      1370.973      2370.488        94.155        11.175        57.136
  WS02001211WS02001212      1373.165      2374.091        94.339        11.198        57.250
  WS02003072WS02003073      2768.418      5068.662       134.733        14.960        79.028
  WS02003069WS02003072      2774.260      5078.404       135.178        15.014        79.301
  WS02003060WS02003069      2777.410      5083.944       135.306        15.027        79.374
  WS02003059WS02003060      1359.563      2350.970        93.367        11.082        56.658
  HS02004901HS02004770        31.242        62.187         0.612         0.047         0.291
  HS02004876HS02004881       101.439       206.366         2.157         0.154         1.048
  HS02004870HS02004876        77.915       158.635         1.702         0.122         0.828
  HS02004842HS02004848        14.998        29.646         0.314         0.022         0.147
  HS02004837HS02004842        19.711        37.156         0.788         0.082         0.444
  HS02004830HS02004837       102.761       188.584         5.380         0.612         3.198
  HS02004824HS02004830       103.639       190.067         5.457         0.621         3.246
  HS02004817HS02004824       159.443       305.377         6.591         0.694         3.797
  HS02004770HS02004777       119.649       241.818         2.495         0.175         1.169
  HS02004799HS02004480       375.128       742.927         8.608         0.706         4.288
  HS02004792HS02004799       343.394       677.434         8.032         0.670         4.017
  HS02004788HS02004792       180.288       357.375         4.713         0.405         2.416
  HS02004785HS02004788       121.053       244.060         2.639         0.193         1.260
  HS02004777HS02004785       120.353       242.948         2.575         0.185         1.220
  HS02004480HS02004478       465.116       923.153        10.263         0.830         5.088
  HS02004479HS02004480        93.773       186.477         1.955         0.161         0.984
  HS02004862HS02004870        60.232       121.315         1.343         0.100         0.655
  HS02004848HS02004852        26.761        53.671         0.548         0.038         0.256
  HS02004856HS02004862        41.868        85.058         0.850         0.058         0.403
  HS02004852HS02004856        26.785        53.714         0.548         0.038         0.257
  HS02004802HS02004478       199.997       389.276         7.178         0.721         4.047
  HS02004478WS02006287       664.052      1310.615        17.388         1.545         9.103
  HS02004817HS02004807       158.337       303.733         6.459         0.677         3.713
  HS02004807HS02004802       199.968       389.188         7.204         0.725         4.064
  YS02001759YS02001757       563.383      1091.256        10.948         0.777         5.338
  YS02001762YS02001759       367.927       708.394         7.387         0.527         3.621
  YS02001765YS02001762       369.461       712.829         7.428         0.531         3.644
  YS02001770YS02001767       377.616       732.667         7.487         0.528         3.657
  YS02001774YS02001770       844.434      1675.022        16.589         1.134         8.061
  YS02001779YS02001774       844.203      1674.718        16.657         1.144         8.107
  YS02001649YS02001757       796.174      1542.344        15.900         1.090         7.701
  YS02001767YS02001765       372.625       720.534         7.500         0.537         3.682
  YS02006561YS02001783      1604.744      3076.279        33.269         2.439        16.415
  YS02001783YS02001784      1604.657      3076.157        33.264         2.439        16.412
  YS02001784YS02001785      1612.239      3088.356        33.993         2.530        16.868
  YS02001788YS02001790      1612.897      3089.450        34.067         2.539        16.915
  YS02001790YS02001791      1613.996      3091.275        34.169         2.552        16.979
  YS02001791YS02001793      1613.875      3091.030        34.165         2.552        16.976
  YS02001910YS02001907       954.764      1854.135        20.446         1.462        10.174
  YS02001786YS02001788      1612.496      3088.808        34.022         2.534        16.887
  YS02001915YS02001910       954.184      1852.970        20.397         1.455        10.143
  YS02001918YS02001915       475.340       891.610        10.629         0.865         5.440
  YS02001923YS02001920       449.226       846.750         8.552         0.613         4.159
  YS02001926YS02001923       446.079       841.022         8.429         0.600         4.089
  YS02001929YS02001926       443.368       836.182         8.331         0.591         4.033
  YS02001920YS02001918       470.774       881.986        10.530         0.858         5.392
  YS02001629YS02163301       211.114       399.138         4.158         0.296         1.989
  YS02001619YS02001622       451.525       869.210         9.097         0.616         4.297
  YS02001622YS02001625       451.217       868.813         9.085         0.615         4.292
  YS02001625YS02001629       205.450       388.069         4.057         0.288         1.938
  YS02163301YS02001633       216.880       410.438         4.258         0.304         2.039
  YS02163601YS02164001       717.744      1352.355        13.945         1.025         6.739
  YS02164001YS02001641       718.425      1353.584        13.945         1.024         6.737
  YS02001641YS02001644       720.871      1358.004        13.981         1.027         6.753
  YS02001647YS02001649       916.358      1758.700        18.519         1.296         8.903
  YS02006553YS02006556       813.556      1521.742        17.644         1.327         8.832
  YS02006556YS02006558       814.153      1522.878        17.613         1.322         8.809
  YSB6556YSB1171              54.545       108.518         1.086         0.087         0.541
  YS02001907YS02006553       813.270      1521.173        17.687         1.334         8.862
  YS02006558YS02006561      1604.639      3076.058        33.267         2.439        16.414
  YS02001633YS02163601       718.242      1353.168        13.919         1.020         6.719
  YS02001644YS02001647       923.618      1772.640        18.625         1.304         8.952
  YS02001745YS02001748       598.646      1179.727        11.880         0.762         5.732
  YS02001748YS02001751       598.200      1179.001        11.892         0.765         5.742
  YS02001751YS02001754       597.555      1177.967        11.881         0.765         5.738
  YS02001754YS02001757       598.798      1179.957        12.054         0.788         5.849
  YS02001882YS02001884         3.673         6.622         0.068         0.005         0.033
  YS02001884YS02001887         8.463        15.552         0.156         0.012         0.076
  YS02001890YS02001895       827.638      1598.986        15.739         1.200         7.708
  YS02001895YS02001898       827.519      1598.879        15.733         1.199         7.705
  YS02001898YS02001901       827.345      1598.531        15.729         1.199         7.702
  YS02001901YS02001904       827.384      1598.628        15.748         1.201         7.715
  YS02001904YS02001907       827.743      1599.141        15.807         1.209         7.753
  YS02001887YS02001890      1076.324      2095.461        20.324         1.551         9.948
  YS02001652YS02001649       549.565      1062.977        10.972         0.801         5.181
  YS02001655YS02001652       550.107      1063.868        10.989         0.802         5.189
  YS02001658YS02001655       549.763      1063.330        10.905         0.791         5.134
  YS02001661YS02001658       550.341      1064.234        10.920         0.792         5.141
  YS02001664YS02001661       557.853      1075.706        11.114         0.805         5.230
  YSB1154YSB6556              54.069       107.774         1.038         0.081         0.511
  YSB1174YSB1171              37.704        75.534         0.747         0.059         0.369
  YSB1171HS02004479           93.613       186.166         1.960         0.162         0.989
  HS02004881HS02006253       113.904       232.270         2.395         0.171         1.163
  YS02001793JiankangQianchi      1614.391      3091.876        34.182         2.553        16.986
  YS02001757CaochengTiaoxuchi       755.857      1469.366        14.545         1.003         7.018
  WSF200WS02003060          1304.849      2552.597        30.938         2.568        15.833
  1                         2774.185      5076.904       135.674        15.085        79.633
  CC-Pump-1                  221.093       435.154         4.146         0.286         1.993
  CC-Pump-2                  102.273       200.231         1.940         0.134         0.934
  JK-Pump-1                  451.349       873.125         9.293         0.684         4.586
  JK-Pump-2                 1004.395      1947.858        20.593         1.515        10.154
  XR-Pump-1                  357.012       615.906        24.793         2.948        15.062
  XR-Pump-2                  330.923       574.164        22.288         2.635        13.496
  XR-Pump-3                  324.073       563.098        21.664         2.558        13.109
  XR-Pump-4                  324.073       563.098        21.664         2.558        13.109
  

  Analysis begun on:  Sat Jul 10 17:13:04 2021
  Analysis ended on:  Sat Jul 10 17:13:07 2021
  Total elapsed time: 00:00:03