
  EPA STORM WATER MANAGEMENT MODEL - VERSION 5.1 (Build 5.3.0.dev0)
  --------------------------------------------------------------

  WARNING 04: minimum elevation drop used for Conduit WS02004404WS02004405
  WARNING 03: negative offset ignored for Link YS02001904YS02001907
  
  *********************************************************
  NOTE: The summary statistics displayed in this report are
  based on results found at every computational time step,  
  not just on results from each reporting time step.
  *********************************************************
  
  ****************
  Analysis Options
  ****************
  Flow Units ............... LPS
  Process Models:
    Rainfall/Runoff ........ YES
    RDII ................... NO
    Snowmelt ............... NO
    Groundwater ............ NO
    Flow Routing ........... YES
    Ponding Allowed ........ NO
    Water Quality .......... YES
  Infiltration Method ...... HORTON
  Flow Routing Method ...... DYNWAVE
  Surcharge Method ......... EXTRAN
  Starting Date ............ 08/28/2015 08:00:00
  Ending Date .............. 08/28/2015 15:50:00
  Antecedent Dry Days ...... 8.0
  Report Time Step ......... 00:01:00
  Wet Time Step ............ 00:01:00
  Dry Time Step ............ 00:01:00
  Routing Time Step ........ 5.00 sec
  Variable Time Step ....... YES
  Maximum Trials ........... 8
  Number of Threads ........ 4
  Head Tolerance ........... 0.001500 m
  
  
  **************************        Volume         Depth
  Runoff Quantity Continuity     hectare-m            mm
  **************************     ---------       -------
  Total Precipitation ......         0.512         1.121
  Evaporation Loss .........         0.000         0.000
  Infiltration Loss ........         0.127         0.278
  Surface Runoff ...........         0.185         0.405
  Final Storage ............         0.200         0.438
  Continuity Error (%) .....        -0.023
  
  
  **************************           COD            SS            TN            TP         NH4-N
  Runoff Quality Continuity             kg            kg            kg            kg            kg
  **************************    ----------    ----------    ----------    ----------    ----------
  Initial Buildup ..........     41378.656     70582.865      1804.177       168.684      1032.807
  Surface Buildup ..........        14.185        11.907         4.180         0.393         2.486
  Wet Deposition ...........         0.000         0.000         0.000         0.000         0.000
  Sweeping Removal .........         0.000         0.000         0.000         0.000         0.000
  Infiltration Loss ........         1.160         1.649         0.029         0.002         0.013
  BMP Removal ..............         0.000         0.000         0.000         0.000         0.000
  Surface Runoff ...........        43.761        61.078         1.080         0.063         0.500
  Remaining Buildup ........     41347.906     70532.025      1807.247       169.012      1034.780
  Continuity Error (%) .....         0.000         0.000         0.000         0.000         0.000
  
  
  **************************        Volume        Volume
  Flow Routing Continuity        hectare-m      10^6 ltr
  **************************     ---------     ---------
  Dry Weather Inflow .......         0.616         6.165
  Wet Weather Inflow .......         0.185         1.850
  Groundwater Inflow .......         0.000         0.000
  RDII Inflow ..............         0.000         0.000
  External Inflow ..........         0.102         1.024
  External Outflow .........         0.840         8.397
  Flooding Loss ............         0.015         0.148
  Evaporation Loss .........         0.000         0.000
  Exfiltration Loss ........         0.000         0.000
  Initial Stored Volume ....         0.076         0.761
  Final Stored Volume ......         0.175         1.753
  Continuity Error (%) .....        -5.083
  
  
  **************************           COD            SS            TN            TP         NH4-N
  Quality Routing Continuity            kg            kg            kg            kg            kg
  **************************    ----------    ----------    ----------    ----------    ----------
  Dry Weather Inflow .......      1541.201      2465.922       147.955        18.494        92.472
  Wet Weather Inflow .......        43.731        61.039         1.079         0.063         0.500
  Groundwater Inflow .......         0.000         0.000         0.000         0.000         0.000
  RDII Inflow ..............         0.000         0.000         0.000         0.000         0.000
  External Inflow ..........       183.418       293.469        17.608         2.201        11.005
  External Outflow .........      1458.430      2331.663       138.979        17.350        86.805
  Flooding Loss ............         1.198         1.857         0.095         0.011         0.058
  Exfiltration Loss ........         0.000         0.000         0.000         0.000         0.000
  Mass Reacted .............         0.000         0.000         0.000         0.000         0.000
  Initial Stored Mass ......         0.000         0.000         0.000         0.000         0.000
  Final Stored Mass ........       137.512       213.828        11.414         1.384         7.033
  Continuity Error (%) .....         9.682         9.682         9.694         9.695         9.695
  
  
  *************************
  Highest Continuity Errors
  *************************
  Node HS02004842 (58.36%)
  Node YS02001774 (57.83%)
  Node YS02001884 (51.29%)
  Node HS02004901 (23.05%)
  Node YSB1171 (22.13%)
  
  
  ***************************
  Time-Step Critical Elements
  ***************************
  Link WS02006280WS02006229 (50.89%)
  Link WS02006238WS02006235 (15.75%)
  Link YS02001793JiankangQianchi (15.33%)
  
  
  ********************************
  Highest Flow Instability Indexes
  ********************************
  Link YS02001754YS02001757 (12)
  Link YS02001649YS02001757 (11)
  Link YS02001652YS02001649 (11)
  Link YS02001767YS02001765 (11)
  Link YS02001762YS02001759 (11)
  
  
  *************************
  Routing Time Step Summary
  *************************
  Minimum Time Step           :     0.50 sec
  Average Time Step           :     4.06 sec
  Maximum Time Step           :     5.00 sec
  Percent in Steady State     :     0.00
  Average Iterations per Step :     2.24
  Percent Not Converging      :     0.27
  
  
  ***************************
  Subcatchment Runoff Summary
  ***************************
  
  ------------------------------------------------------------------------------------------------------------------------------
                            Total      Total      Total      Total     Imperv       Perv      Total       Total     Peak  Runoff
                           Precip      Runon       Evap      Infil     Runoff     Runoff     Runoff      Runoff   Runoff   Coeff
  Subcatchment                 mm         mm         mm         mm         mm         mm         mm    10^6 ltr      LPS
  ------------------------------------------------------------------------------------------------------------------------------
  sub0                       1.12       0.00       0.00       0.08       1.00       0.00       1.00        0.00     0.26   0.891
  sub1                       1.12       0.00       0.00       0.12       0.92       0.00       0.92        0.01     1.20   0.820
  sub2                       1.12       0.00       0.00       0.41       0.64       0.00       0.64        0.01     1.02   0.568
  sub3                       1.12       0.00       0.00       0.41       0.61       0.00       0.61        0.01     1.99   0.547
  sub4                       1.12       0.00       0.00       0.12       0.82       0.00       0.82        0.02     2.14   0.735
  sub5                       1.12       0.00       0.00       0.08       0.96       0.00       0.96        0.01     2.14   0.856
  sub7                       1.12       0.00       0.00       0.10       0.96       0.00       0.96        0.00     0.81   0.858
  sub8                       1.12       0.00       0.00       0.10       0.96       0.00       0.96        0.01     1.39   0.852
  sub9                       1.12       0.00       0.00       0.10       0.95       0.00       0.95        0.00     1.02   0.850
  sub10                      1.12       0.00       0.00       0.09       0.96       0.00       0.96        0.01     2.16   0.852
  sub11                      1.12       0.00       0.00       0.09       0.97       0.00       0.97        0.01     2.64   0.864
  sub12                      1.12       0.00       0.00       0.15       0.93       0.00       0.93        0.01     2.38   0.829
  sub14                      1.12       0.00       0.00       0.10       0.95       0.00       0.95        0.01     1.99   0.849
  sub15                      1.12       0.00       0.00       0.34       0.73       0.00       0.73        0.01     2.68   0.651
  sub16                      1.12       0.00       0.00       0.37       0.71       0.00       0.71        0.01     2.05   0.636
  sub17                      1.12       0.00       0.00       0.36       0.72       0.00       0.72        0.01     1.64   0.644
  sub22                      1.12       0.00       0.00       0.48       0.60       0.00       0.60        0.04     9.07   0.536
  sub23                      1.12       0.00       0.00       0.41       0.67       0.00       0.67        0.03     7.78   0.594
  sub60                      1.12       0.00       0.00       0.13       0.41       0.00       0.41        0.13     8.50   0.368
  sub61                      1.12       0.00       0.00       0.19       0.49       0.00       0.49        0.15    11.38   0.437
  sub62                      1.12       0.00       0.00       0.09       0.51       0.00       0.51        0.16    11.43   0.455
  sub63                      1.12       0.00       0.00       0.33       0.45       0.00       0.45        0.14    10.87   0.406
  sub64                      1.12       0.00       0.00       0.17       0.39       0.00       0.39        0.12     8.03   0.350
  sub65                      1.12       0.00       0.00       0.15       0.39       0.00       0.39        0.12     8.11   0.351
  sub66                      1.12       0.00       0.00       0.33       0.35       0.00       0.35        0.11     7.52   0.315
  sub67                      1.12       0.00       0.00       0.09       0.62       0.00       0.62        0.19    15.47   0.550
  sub68                      1.12       0.00       0.00       0.16       0.54       0.00       0.54        0.16    12.77   0.478
  sub69                      1.12       0.00       0.00       0.17       0.64       0.00       0.64        0.15    13.45   0.572
  sub70                      1.12       0.65       0.00       0.60       0.61       0.00       0.61        0.14     8.31   0.345
  sub71                      1.12       0.00       0.00       0.09       0.47       0.00       0.47        0.11     7.79   0.419
  sub72                      1.12       0.00       0.00       0.08       0.27       0.00       0.27        0.06     3.27   0.241
  1                          1.12       0.60       0.00       0.58       0.54       0.00       0.54        0.13     7.15   0.316
  2                          1.12       0.00       0.00       0.84       0.20       0.00       0.20        0.08     7.69   0.178
  
  
  ****************************
  Subcatchment Washoff Summary
  ****************************
  
  ------------------------------------------------------------------------------------------
                                 COD            SS            TN            TP         NH4-N
  Subcatchment                    kg            kg            kg            kg            kg
  ------------------------------------------------------------------------------------------
  sub0                         0.069         0.108         0.001         0.000         0.001
  sub1                         0.265         0.415         0.006         0.000         0.003
  sub2                         0.153         0.233         0.004         0.000         0.002
  sub3                         0.347         0.515         0.010         0.001         0.004
  sub4                         0.550         0.836         0.014         0.001         0.007
  sub5                         0.577         0.888         0.011         0.001         0.005
  sub7                         0.154         0.249         0.003         0.000         0.002
  sub8                         0.242         0.397         0.006         0.000         0.003
  sub9                         0.196         0.318         0.004         0.000         0.002
  sub10                        0.505         0.792         0.010         0.001         0.005
  sub11                        0.537         0.861         0.011         0.001         0.005
  sub12                        0.455         0.726         0.009         0.001         0.004
  sub14                        0.404         0.647         0.009         0.001         0.004
  sub15                        0.448         0.686         0.010         0.001         0.005
  sub16                        0.303         0.470         0.007         0.000         0.003
  sub17                        0.266         0.407         0.006         0.000         0.003
  sub22                        1.331         2.004         0.031         0.002         0.014
  sub23                        0.916         1.443         0.025         0.002         0.011
  sub60                        2.631         3.574         0.070         0.004         0.033
  sub61                        3.555         4.823         0.082         0.005         0.039
  sub62                        3.814         5.275         0.097         0.005         0.046
  sub63                        2.880         3.946         0.081         0.005         0.035
  sub64                        2.780         3.642         0.064         0.004         0.030
  sub65                        2.854         3.751         0.067         0.004         0.031
  sub66                        1.936         2.604         0.057         0.003         0.025
  sub67                        5.831         7.991         0.121         0.008         0.058
  sub68                        4.227         5.835         0.104         0.006         0.049
  sub69                        4.394         6.179         0.102         0.006         0.048
  sub70                        4.722         6.679         0.129         0.008         0.057
  sub71                        2.542         3.538         0.071         0.003         0.033
  sub72                        1.107         1.405         0.027         0.002         0.013
  1                            1.432         2.051         0.043         0.003         0.018
  2                            0.456         0.646         0.020         0.001         0.008
  ------------------------------------------------------------------------------------------
  System                      52.876        73.935         1.311         0.077         0.605
  
  
  ******************
  Node Depth Summary
  ******************
  
  ---------------------------------------------------------------------------------
                                 Average  Maximum  Maximum  Time of Max    Reported
                                   Depth    Depth      HGL   Occurrence   Max Depth
  Node                 Type       Meters   Meters   Meters  days hr:min      Meters
  ---------------------------------------------------------------------------------
  WS02001211           JUNCTION     0.61     0.76     5.60     0  03:30        0.76
  WS02001212           JUNCTION     0.34     0.46     5.52     0  03:30        0.46
  WS02001213           JUNCTION     0.54     0.68     5.44     0  03:31        0.68
  WS02003069           JUNCTION     0.30     0.42     5.01     0  03:33        0.42
  WS02003072           JUNCTION     0.36     0.49     4.86     0  03:34        0.49
  WS02003073           JUNCTION     0.21     0.29     4.36     0  03:34        0.29
  WS02003060           JUNCTION     0.27     0.38     5.31     0  03:32        0.38
  WS02003066           JUNCTION     0.10     0.19     5.74     0  05:26        0.19
  WS02003059           JUNCTION     0.59     0.72     5.41     0  03:31        0.72
  WS02003067           JUNCTION     0.28     0.49     5.81     0  05:26        0.49
  WS02004401           JUNCTION     0.37     0.55     6.55     0  05:21        0.55
  WS02004402           JUNCTION     0.41     0.59     6.55     0  05:21        0.59
  WS02004403           JUNCTION     0.44     0.61     6.54     0  05:21        0.61
  WS02004404           JUNCTION     0.51     0.69     6.54     0  05:21        0.69
  WS02004406           JUNCTION     0.53     0.71     6.54     0  05:22        0.71
  WS02004409           JUNCTION     0.16     0.35     6.12     0  05:24        0.35
  WS02004410           JUNCTION     0.19     0.37     6.09     0  05:25        0.37
  WS02004411           JUNCTION     0.21     0.40     6.08     0  05:25        0.40
  WS02004412           JUNCTION     0.24     0.43     6.07     0  05:26        0.43
  WS02004413           JUNCTION     0.37     0.60     6.07     0  05:26        0.60
  WS02004405           JUNCTION     0.51     0.69     6.54     0  05:21        0.69
  WS02006109           JUNCTION     0.42     0.64     7.26     0  03:23        0.64
  WS02006110           JUNCTION     0.45     0.66     7.24     0  03:23        0.66
  WS02006111           JUNCTION     0.09     0.18     6.89     0  03:24        0.18
  WS02006112           JUNCTION     0.51     0.70     6.58     0  05:20        0.70
  WS02006113           JUNCTION     0.13     0.27     7.17     0  03:24        0.27
  WS02006115           JUNCTION     0.25     0.42     6.56     0  05:20        0.42
  WS02006116           JUNCTION     0.34     0.52     6.56     0  05:21        0.52
  WS02006230           JUNCTION     0.31     0.55     7.30     0  03:22        0.55
  WS02006231           JUNCTION     0.13     0.40     7.52     0  03:22        0.39
  WS02006232           JUNCTION     0.22     0.53     7.57     0  03:22        0.53
  WS02006234           JUNCTION     0.11     0.43     7.59     0  03:22        0.43
  WS02006235           JUNCTION     0.14     0.46     7.63     0  03:22        0.46
  WS02006238           JUNCTION     0.16     0.48     7.63     0  03:22        0.48
  WS02006240           JUNCTION     0.08     0.34     7.63     0  03:22        0.33
  WS02006242           JUNCTION     0.11     0.37     7.64     0  03:22        0.37
  WS02006243           JUNCTION     0.04     0.22     7.64     0  03:23        0.22
  WS02006245           JUNCTION     0.04     0.17     7.65     0  03:23        0.16
  WS02006247           JUNCTION     0.04     0.16     7.66     0  03:24        0.16
  WS02006248           JUNCTION     0.03     0.08     7.66     0  03:24        0.07
  WS02006249           JUNCTION     0.05     0.09     7.69     0  02:38        0.09
  WS02006239           JUNCTION     0.10     0.42     7.63     0  03:22        0.42
  WS02006251           JUNCTION     0.03     0.06     7.73     0  02:36        0.06
  WS02006252           JUNCTION     0.00     0.00     8.24     0  00:00        0.00
  WS02006253           JUNCTION     0.06     0.11     7.75     0  02:34        0.11
  WS02006256           JUNCTION     0.50     2.35     9.28     0  00:00        2.35
  WS02004138           JUNCTION     0.13     0.20     7.45     0  00:00        0.19
  WS02004139           JUNCTION     0.56     0.71     5.62     0  03:30        0.71
  WS02004407           JUNCTION     0.08     0.17     6.48     0  05:22        0.17
  WS02006228           JUNCTION     0.39     0.62     7.27     0  03:23        0.62
  WS02006229           JUNCTION     0.35     0.58     7.28     0  03:23        0.58
  WS02006280           JUNCTION     0.04     0.06     8.34     0  02:33        0.06
  WS02006284           JUNCTION     0.31     0.37     8.77     0  02:32        0.37
  WS02006287           JUNCTION     0.05     0.09     9.05     0  02:32        0.09
  WSF200               JUNCTION     0.07     0.15     5.39     0  05:26        0.15
  HS02004901           JUNCTION     0.08     0.13     9.95     0  02:33        0.13
  HS02004881           JUNCTION     0.00     0.01     9.04     0  02:34        0.01
  HS02004876           JUNCTION     0.02     0.04     9.07     0  02:34        0.04
  HS02004870           JUNCTION     0.00     0.01     9.30     0  02:31        0.01
  HS02004862           JUNCTION     0.01     0.01     9.40     0  02:32        0.01
  HS02004856           JUNCTION     0.06     0.08     9.51     0  02:29        0.08
  HS02004852           JUNCTION     0.00     0.01     9.52     0  02:30        0.01
  HS02004848           JUNCTION     0.00     0.01     9.61     0  02:21        0.01
  HS02004842           JUNCTION     0.31     0.34     9.61     0  02:20        0.34
  HS02004837           JUNCTION     0.02     0.03     9.61     0  02:21        0.03
  HS02004830           JUNCTION     0.03     0.04     9.51     0  02:21        0.04
  HS02004824           JUNCTION     0.01     0.02     9.42     0  02:25        0.02
  HS02004817           JUNCTION     0.39     0.44     9.29     0  02:31        0.44
  HS02004807           JUNCTION     0.09     0.12     9.29     0  02:31        0.12
  HS02004802           JUNCTION     0.12     0.16     9.29     0  02:31        0.16
  HS02004799           JUNCTION     0.07     0.12     9.33     0  02:31        0.12
  HS02004792           JUNCTION     0.01     0.03     9.55     0  02:30        0.03
  HS02004788           JUNCTION     0.01     0.02     9.92     0  02:34        0.02
  HS02004785           JUNCTION     0.02     0.05     9.95     0  02:35        0.05
  HS02004777           JUNCTION     0.10     0.15     9.95     0  02:34        0.15
  HS02004770           JUNCTION     0.07     0.12     9.95     0  02:34        0.12
  HS02004480           JUNCTION     0.04     0.08     9.32     0  02:32        0.08
  HS02004479           JUNCTION     0.07     0.12     9.32     0  02:32        0.12
  HS02004478           JUNCTION     0.03     0.06     9.28     0  02:31        0.06
  YS02001745           JUNCTION     0.03     0.04     7.56     0  03:01        0.04
  YS02001748           JUNCTION     0.04     0.10     7.18     0  07:49        0.10
  YS02001751           JUNCTION     0.14     0.30     7.18     0  07:49        0.30
  YS02001754           JUNCTION     0.31     0.57     7.18     0  07:49        0.57
  YS02001762           JUNCTION     0.47     0.78     7.18     0  07:49        0.78
  YS02001765           JUNCTION     0.43     0.73     7.18     0  07:49        0.73
  YS02001767           JUNCTION     0.41     0.69     7.18     0  07:49        0.69
  YS02001770           JUNCTION     0.40     0.68     7.18     0  07:50        0.68
  YS02001774           JUNCTION     0.46     0.76     7.18     0  07:49        0.76
  YS02001779           JUNCTION     0.25     0.49     7.18     0  07:49        0.49
  YS02001882           JUNCTION     0.12     0.19     6.90     0  03:05        0.19
  YS02001884           JUNCTION     0.20     0.29     6.90     0  03:05        0.29
  YS02001759           JUNCTION     0.50     0.81     7.18     0  07:49        0.81
  YS02001887           JUNCTION     0.28     0.36     6.90     0  03:05        0.36
  YS02001890           JUNCTION     0.31     0.40     6.90     0  03:05        0.40
  YS02001898           JUNCTION     0.10     0.16     6.89     0  03:07        0.16
  YS02001901           JUNCTION     0.20     0.28     6.89     0  03:06        0.28
  YS02001904           JUNCTION     0.18     0.26     6.89     0  03:06        0.26
  YS02001907           JUNCTION     0.49     0.60     6.89     0  03:07        0.60
  YS02001910           JUNCTION     0.29     0.38     6.89     0  03:06        0.38
  YS02001915           JUNCTION     0.12     0.17     6.89     0  03:06        0.17
  YS02001918           JUNCTION     0.04     0.04     7.11     0  03:08        0.04
  YS02001619           JUNCTION     0.11     0.25     7.18     0  07:50        0.25
  YS02001629           JUNCTION     0.35     0.63     7.18     0  07:50        0.63
  YS02001641           JUNCTION     0.45     0.74     7.18     0  07:49        0.74
  YS02001644           JUNCTION     0.45     0.75     7.18     0  07:49        0.75
  YS02001652           JUNCTION     0.32     0.58     7.18     0  07:49        0.58
  YS02001655           JUNCTION     0.16     0.33     7.18     0  07:49        0.33
  YS02001920           JUNCTION     0.11     0.12     7.13     0  03:07        0.12
  YS02001923           JUNCTION     0.02     0.03     7.29     0  03:05        0.03
  YS02001926           JUNCTION     0.06     0.08     7.52     0  03:04        0.08
  YS02001929           JUNCTION     0.02     0.03     7.72     0  03:01        0.03
  YS02001658           JUNCTION     0.03     0.05     7.19     0  03:01        0.05
  YS02001661           JUNCTION     0.09     0.12     7.52     0  03:01        0.12
  YS02001664           JUNCTION     0.03     0.04     7.97     0  03:01        0.04
  YS02001622           JUNCTION     0.12     0.27     7.18     0  07:49        0.27
  YS02001633           JUNCTION     0.44     0.72     7.18     0  07:50        0.72
  YS02001649           JUNCTION     0.48     0.79     7.18     0  07:49        0.79
  YS02001757           JUNCTION     0.60     0.92     7.18     0  07:49        0.92
  YS02001895           JUNCTION     0.10     0.15     6.90     0  03:05        0.15
  YS02001625           JUNCTION     0.35     0.57     7.18     0  07:50        0.57
  YS02163301           JUNCTION     0.38     0.66     7.18     0  07:50        0.66
  YS02163601           JUNCTION     0.49     0.78     7.18     0  07:49        0.78
  YS02164001           JUNCTION     0.43     0.72     7.18     0  07:49        0.72
  YS02001647           JUNCTION     0.31     0.57     7.18     0  07:50        0.57
  YSB1154              JUNCTION     0.20     0.27     9.32     0  02:32        0.27
  YSB6556              JUNCTION     0.10     0.16     9.32     0  02:31        0.15
  YSB1174              JUNCTION     0.16     0.21     9.32     0  02:32        0.21
  YSB1171              JUNCTION     0.35     0.42     9.32     0  02:32        0.42
  YS02006553           JUNCTION     0.49     0.61     6.89     0  03:07        0.61
  YS02006561           JUNCTION     0.05     0.08     6.74     0  03:07        0.08
  YS02006556           JUNCTION     0.47     0.58     6.89     0  03:06        0.58
  YS02006558           JUNCTION     0.51     0.62     6.89     0  03:06        0.62
  YS02001783           JUNCTION     0.08     0.13     6.27     0  03:07        0.13
  YS02001784           JUNCTION     0.11     0.17     6.24     0  03:07        0.17
  YS02001786           JUNCTION     0.10     0.14     6.17     0  03:08        0.14
  YS02001788           JUNCTION     0.06     0.10     6.08     0  03:09        0.10
  YS02001790           JUNCTION     0.08     0.12     5.77     0  03:09        0.12
  YS02001791           JUNCTION     0.05     0.08     5.55     0  03:09        0.08
  YS02001793           JUNCTION     0.03     0.05     4.89     0  03:22        0.05
  WSC                  OUTFALL      0.21     0.29     0.96     0  03:35        0.29
  JK-storage           STORAGE      0.58     3.00     3.80     0  00:00        2.47
  CC-storage           STORAGE      0.05     0.18     7.18     0  07:50        0.18
  XR-storage           STORAGE      1.51     5.00     3.00     0  00:00        4.91
  
  
  *******************
  Node Inflow Summary
  *******************
  
  -------------------------------------------------------------------------------------------------
                                  Maximum  Maximum                  Lateral       Total        Flow
                                  Lateral    Total  Time of Max      Inflow      Inflow     Balance
                                   Inflow   Inflow   Occurrence      Volume      Volume       Error
  Node                 Type           LPS      LPS  days hr:min    10^6 ltr    10^6 ltr     Percent
  -------------------------------------------------------------------------------------------------
  WS02001211           JUNCTION      7.35   387.70     0  06:28       0.207        6.81       0.135
  WS02001212           JUNCTION      0.00   387.73     0  06:28           0         6.8       0.095
  WS02001213           JUNCTION      0.00   387.77     0  06:28           0        6.79       0.167
  WS02003069           JUNCTION      0.32   534.27     0  03:33     0.00902        8.39       0.110
  WS02003072           JUNCTION      0.00   533.82     0  03:33           0        8.38       0.182
  WS02003073           JUNCTION      1.82   535.45     0  03:34      0.0514        8.41       0.184
  WS02003060           JUNCTION     16.53   534.24     0  03:32       0.466        8.39       0.115
  WS02003066           JUNCTION      0.00   157.20     0  05:26           0        1.16       0.202
  WS02003059           JUNCTION      0.00   387.83     0  06:28           0        6.79       0.237
  WS02003067           JUNCTION      0.00   157.22     0  05:26           0        1.16       0.492
  WS02004401           JUNCTION      0.00   188.39     0  03:25           0         1.3       1.012
  WS02004402           JUNCTION      0.00   180.30     0  03:25           0        1.29       1.015
  WS02004403           JUNCTION      0.00   176.15     0  05:20           0        1.27       0.972
  WS02004404           JUNCTION      0.16   174.52     0  05:20     0.00457        1.27       0.780
  WS02004406           JUNCTION      0.00   172.76     0  05:21           0        1.24       1.973
  WS02004409           JUNCTION      0.00   172.03     0  05:22           0        1.22       0.531
  WS02004410           JUNCTION      0.00   168.21     0  05:23           0        1.21       0.694
  WS02004411           JUNCTION      0.00   164.04     0  05:23           0         1.2       0.789
  WS02004412           JUNCTION      0.00   160.75     0  05:24           0        1.19       0.962
  WS02004413           JUNCTION      0.00   158.31     0  05:25           0        1.18       1.587
  WS02004405           JUNCTION      0.04   173.69     0  05:21     0.00107        1.26       1.202
  WS02006109           JUNCTION      1.23   220.46     0  03:23      0.0347        1.36       1.005
  WS02006110           JUNCTION      0.00   217.30     0  03:23           0        1.35       0.835
  WS02006111           JUNCTION      0.00   210.58     0  03:24           0        1.33       0.127
  WS02006112           JUNCTION      1.64   209.57     0  03:24      0.0062        1.34       1.386
  WS02006113           JUNCTION      0.00   213.00     0  03:23           0        1.34       0.257
  WS02006115           JUNCTION      0.00   203.62     0  03:24           0        1.32       0.754
  WS02006116           JUNCTION      0.00   196.02     0  03:25           0        1.31       0.805
  WS02006230           JUNCTION     10.28   209.09     0  03:22        0.29        0.99       0.714
  WS02006231           JUNCTION      0.00   203.68     0  03:22           0       0.703       0.376
  WS02006232           JUNCTION      0.00   207.11     0  03:22           0       0.714       1.472
  WS02006234           JUNCTION      0.00   211.14     0  03:22           0       0.711      -0.412
  WS02006235           JUNCTION      0.00   288.60     0  00:00           0       0.842       1.208
  WS02006238           JUNCTION      0.00   164.86     0  00:00           0       0.249       0.854
  WS02006240           JUNCTION      0.00    80.36     0  00:02           0       0.154       0.741
  WS02006242           JUNCTION      0.00    65.03     0  00:03           0       0.106       1.613
  WS02006243           JUNCTION      0.00    26.15     0  07:20           0      0.0675       1.445
  WS02006245           JUNCTION      0.00    16.65     0  07:21           0      0.0503       2.804
  WS02006247           JUNCTION      0.00    12.02     0  07:22           0      0.0414       0.448
  WS02006248           JUNCTION      0.00     5.65     0  02:38           0      0.0373       0.339
  WS02006249           JUNCTION      0.00     5.68     0  02:36           0      0.0368       0.723
  WS02006239           JUNCTION      0.00   121.08     0  00:01           0       0.204       1.158
  WS02006251           JUNCTION      0.08     5.70     0  02:34     0.00217      0.0367       0.177
  WS02006252           JUNCTION      0.00     0.00     0  00:00           0           0       0.000 ltr
  WS02006253           JUNCTION      0.26     5.63     0  02:33    0.000809      0.0347       0.463
  WS02006256           JUNCTION      0.00   983.00     0  00:00           0        0.84      -0.303
  WS02004138           JUNCTION      0.00   380.00     0  00:00           0        6.61       0.022
  WS02004139           JUNCTION      0.32   396.51     0  00:00     0.00905        6.62       0.255
  WS02004407           JUNCTION      0.00   172.18     0  05:22           0        1.22       0.246
  WS02006228           JUNCTION      0.00   224.91     0  03:22           0        1.34       0.752
  WS02006229           JUNCTION      0.00   229.40     0  03:22           0        1.35       0.555
  WS02006280           JUNCTION      0.00    38.41     0  02:33           0       0.362       0.022
  WS02006284           JUNCTION      0.10    38.41     0  02:32      0.0027       0.363       0.325
  WS02006287           JUNCTION      0.00    38.32     0  02:31           0       0.361       0.191
  WSF200               JUNCTION      0.00   157.18     0  05:26           0        1.16       0.165
  HS02004901           JUNCTION      2.05     2.05     0  02:12     0.00747     0.00759      29.963
  HS02004881           JUNCTION      0.81     5.49     0  02:33     0.00324       0.034       0.164
  HS02004876           JUNCTION      1.20     4.98     0  02:30     0.00611      0.0312       1.605
  HS02004870           JUNCTION      1.39     3.90     0  02:30      0.0061      0.0252       0.402
  HS02004862           JUNCTION      1.22     2.78     0  02:28      0.0116      0.0193       0.831
  HS02004856           JUNCTION      1.02     1.62     0  02:25     0.00458     0.00911      18.614
  HS02004852           JUNCTION      0.00     0.72     0  02:27           0     0.00456       0.865
  HS02004848           JUNCTION      1.99     1.99     0  02:26      0.0138      0.0138       0.262
  HS02004842           JUNCTION      0.00     4.48     0  00:03           0      0.0223     140.134
  HS02004837           JUNCTION      8.51     9.78     0  02:20        0.19       0.199       0.412
  HS02004830           JUNCTION      0.15     9.92     0  02:21     0.00423       0.189       0.653
  HS02004824           JUNCTION      2.19    12.07     0  02:25      0.0186       0.207       0.260
  HS02004817           JUNCTION      0.60    12.67     0  02:25      0.0169       0.223       8.067
  HS02004807           JUNCTION      2.64    14.97     0  02:22      0.0112       0.218       1.976
  HS02004802           JUNCTION      0.00    14.84     0  02:24           0       0.213       1.928
  HS02004799           JUNCTION      1.99    20.19     0  02:29     0.00906       0.148       1.512
  HS02004792           JUNCTION      9.35    18.48     0  02:30      0.0458       0.139       0.303
  HS02004788           JUNCTION      4.35    11.07     0  02:33      0.0596      0.0943       0.417
  HS02004785           JUNCTION      0.15     7.28     0  02:32     0.00423      0.0368       1.272
  HS02004777           JUNCTION      0.03     7.85     0  02:13    0.000846      0.0369      16.220
  HS02004770           JUNCTION      7.78     9.53     0  02:13      0.0317      0.0376       8.962
  HS02004480           JUNCTION      0.00    23.64     0  02:31           0       0.164       0.353
  HS02004479           JUNCTION      0.00     3.75     0  02:15           0      0.0291       2.552
  HS02004478           JUNCTION      0.00    38.32     0  02:31           0       0.362       0.222
  YS02001745           JUNCTION      8.50     8.50     0  03:01       0.125       0.125       0.130
  YS02001748           JUNCTION      0.04     8.54     0  03:01     0.00127       0.126       0.544
  YS02001751           JUNCTION      0.01     8.55     0  03:01     0.00031       0.126       4.948
  YS02001754           JUNCTION      0.26    11.55     0  05:59     0.00733       0.129      11.756
  YS02001762           JUNCTION      0.00    12.58     0  03:21           0       0.118      17.071
  YS02001765           JUNCTION      0.00    12.39     0  03:39           0       0.118      18.686
  YS02001767           JUNCTION      0.54    13.37     0  03:39      0.0151       0.131      24.494
  YS02001770           JUNCTION     11.58    13.78     0  03:20       0.161       0.164      15.561
  YS02001774           JUNCTION      0.00     8.03     0  03:20           0      0.0332     137.143
  YS02001779           JUNCTION      0.01     4.25     0  03:22    0.000141      0.0111     267.598
  YS02001882           JUNCTION      0.00     1.14     0  02:10           0     0.00157     194.935
  YS02001884           JUNCTION      0.00     3.43     0  02:13           0     0.00676     105.283
  YS02001759           JUNCTION     11.42    22.79     0  03:35       0.152       0.242       8.841
  YS02001887           JUNCTION     15.92    15.92     0  02:58       0.203       0.205       2.825
  YS02001890           JUNCTION      0.00    15.71     0  03:00           0       0.193       3.357
  YS02001898           JUNCTION      0.00    15.54     0  03:04           0       0.184       0.685
  YS02001901           JUNCTION      0.00    15.55     0  03:05           0       0.185       2.243
  YS02001904           JUNCTION      0.00    15.52     0  03:05           0       0.185       2.102
  YS02001907           JUNCTION      0.00    29.35     0  03:07           0       0.419       4.920
  YS02001910           JUNCTION      0.00    13.96     0  03:04           0       0.244       3.521
  YS02001915           JUNCTION      7.81    13.96     0  03:01       0.111       0.247       1.153
  YS02001918           JUNCTION      0.00     6.21     0  03:06           0       0.136       0.358
  YS02001619           JUNCTION      7.52     7.52     0  03:01       0.108       0.108       2.222
  YS02001629           JUNCTION      0.00     7.97     0  03:40           0      0.0804      15.539
  YS02001641           JUNCTION      0.00    15.10     0  03:27           0       0.146      12.629
  YS02001644           JUNCTION      8.07    21.89     0  03:33        0.12       0.244       8.940
  YS02001652           JUNCTION      0.00    11.47     0  03:42           0       0.134      11.083
  YS02001655           JUNCTION      0.15    11.02     0  03:01     0.00434       0.141       5.191
  YS02001920           JUNCTION      2.87     6.21     0  03:05      0.0809       0.137       0.923
  YS02001923           JUNCTION      0.04     3.34     0  03:04     0.00106      0.0566       0.192
  YS02001926           JUNCTION      0.05     3.32     0  03:01     0.00147      0.0564       1.515
  YS02001929           JUNCTION      3.27     3.27     0  03:01       0.055       0.055       0.170
  YS02001658           JUNCTION      0.00    10.86     0  03:01           0       0.137       0.167
  YS02001661           JUNCTION      0.00    10.87     0  03:01           0       0.137       0.417
  YS02001664           JUNCTION     10.87    10.87     0  03:01       0.138       0.138       0.068
  YS02001622           JUNCTION      0.00     7.58     0  03:00           0       0.106       7.754
  YS02001633           JUNCTION      8.31    16.50     0  03:34       0.127       0.184      14.970
  YS02001649           JUNCTION      0.00    32.25     0  03:39           0       0.318      10.368
  YS02001757           JUNCTION      0.00    62.25     0  03:37           0       0.593      16.412
  YS02001895           JUNCTION      0.00    15.59     0  03:03           0       0.186       1.121
  YS02001625           JUNCTION      0.00     9.02     0  03:01           0      0.0987      26.117
  YS02163301           JUNCTION      0.00    10.43     0  03:26           0      0.0751      28.281
  YS02163601           JUNCTION      0.11    15.71     0  03:40      0.0031       0.162      17.691
  YS02164001           JUNCTION      0.00    15.81     0  03:41           0       0.146      11.565
  YS02001647           JUNCTION      0.00    22.13     0  03:40           0       0.215       8.688
  YSB1154              JUNCTION      2.14     2.14     0  02:18      0.0109      0.0124      13.156
  YSB6556              JUNCTION      0.00     2.12     0  02:14           0      0.0136      10.026
  YSB1174              JUNCTION      2.38     2.38     0  02:11     0.00812     0.00925      16.097
  YSB1171              JUNCTION      0.00     4.17     0  02:15           0      0.0285      28.412
  YS02006553           JUNCTION      0.00    29.40     0  03:09           0       0.406       3.262
  YS02006561           JUNCTION      0.00    42.60     0  03:06           0       0.555       0.056
  YS02006556           JUNCTION      0.00    29.43     0  03:09           0       0.407       2.294
  YS02006558           JUNCTION     13.65    42.61     0  03:06       0.189       0.577       0.678
  YS02001783           JUNCTION      0.00    42.59     0  03:07           0       0.555       0.131
  YS02001784           JUNCTION      1.06    43.64     0  03:07      0.0299       0.584       0.221
  YS02001786           JUNCTION      0.06    43.69     0  03:08     0.00159       0.584       0.227
  YS02001788           JUNCTION      0.07    43.76     0  03:08       0.002       0.585       0.118
  YS02001790           JUNCTION      0.15    43.92     0  03:09     0.00437       0.589       0.153
  YS02001791           JUNCTION      0.00    43.92     0  03:09           0       0.588       0.072
  YS02001793           JUNCTION      0.00    44.43     0  03:22           0       0.587       0.046
  WSC                  OUTFALL       0.00   535.00     0  03:35           0         8.4       0.000
  JK-storage           STORAGE       0.00    43.93     0  03:22           0       0.738     -12.110
  CC-storage           STORAGE       0.00    56.45     0  03:37           0       0.502       1.900
  XR-storage           STORAGE     214.63   214.63     0  03:01        5.85        6.45      -5.800
  
  
  **********************
  Node Surcharge Summary
  **********************
  
  Surcharging occurs when water rises above the top of the highest conduit.
  ---------------------------------------------------------------------
                                               Max. Height   Min. Depth
                                   Hours       Above Crown    Below Rim
  Node                 Type      Surcharged         Meters       Meters
  ---------------------------------------------------------------------
  WS02006256           JUNCTION        3.84          2.050        0.000
  
  
  *********************
  Node Flooding Summary
  *********************
  
  Flooding refers to all water that overflows a node, whether it ponds or not.
  --------------------------------------------------------------------------
                                                             Total   Maximum
                                 Maximum   Time of Max       Flood    Ponded
                        Hours       Rate    Occurrence      Volume     Depth
  Node                 Flooded       LPS   days hr:min    10^6 ltr    Meters
  --------------------------------------------------------------------------
  WS02006256              0.20    978.40      0  00:00       0.146     0.000
  
  
  **********************
  Storage Volume Summary
  **********************
  
  --------------------------------------------------------------------------------------------------
                         Average     Avg  Evap Exfil       Maximum     Max    Time of Max    Maximum
                          Volume    Pcnt  Pcnt  Pcnt        Volume    Pcnt     Occurrence    Outflow
  Storage Unit           1000 m3    Full  Loss  Loss       1000 m3    Full    days hr:min        LPS
  --------------------------------------------------------------------------------------------------
  JK-storage               0.029      10     0     0         0.151      52       0  00:00     983.00
  CC-storage               0.152       1     0     0         0.493       3       0  07:50       0.00
  XR-storage               0.181      20     0     0         0.600      65       0  00:00     380.00
  
  
  ***********************
  Outfall Loading Summary
  ***********************
  
  ---------------------------------------------------------------------------------------------------------------------------------
                         Flow       Avg       Max       Total         Total         Total         Total         Total         Total
                         Freq      Flow      Flow      Volume           COD            SS            TN            TP         NH4-N
  Outfall Node           Pcnt       LPS       LPS    10^6 ltr            kg            kg            kg            kg            kg
  ---------------------------------------------------------------------------------------------------------------------------------
  WSC                   99.94    298.63    535.00       8.397      1458.560      2331.871       138.992        17.352        86.813
  ---------------------------------------------------------------------------------------------------------------------------------
  System                99.94    298.63    535.00       8.397      1458.560      2331.871       138.992        17.352        86.813
  
  
  ********************
  Link Flow Summary
  ********************
  
  -----------------------------------------------------------------------------
                                 Maximum  Time of Max   Maximum    Max/    Max/
                                  |Flow|   Occurrence   |Veloc|    Full    Full
  Link                 Type          LPS  days hr:min     m/sec    Flow   Depth
  -----------------------------------------------------------------------------
  WS02003066WSF200     CONDUIT    157.18     0  05:26      2.05    0.03    0.12
  WS02006287WS02006284 CONDUIT     38.31     0  02:32      0.87    0.02    0.11
  WS02006284WS02006280 CONDUIT     38.41     0  02:33      1.13    0.02    0.09
  WS02006280WS02006229 CONDUIT     38.41     0  02:33      1.80    0.01    0.06
  WS02006229WS02006228 CONDUIT    224.91     0  03:22      0.96    0.74    0.73
  WS02006256WS02006235 CONDUIT    288.60     0  00:00      4.23    3.05    1.00
  WS02006253WS02006251 CONDUIT      5.62     0  02:34      0.23    0.02    0.11
  WS02006252WS02006251 CONDUIT      0.00     0  00:00      0.00    0.00    0.00
  WS02006251WS02006249 CONDUIT      5.68     0  02:36      0.26    0.02    0.11
  WS02006249WS02006248 CONDUIT      5.65     0  02:38      0.31    0.03    0.09
  WS02006248WS02006247 CONDUIT      7.63     0  03:25      0.33    0.02    0.16
  WS02006247WS02006245 CONDUIT     14.74     0  03:25      0.34    0.12    0.22
  WS02006245WS02006243 CONDUIT     22.13     0  03:25      0.51    0.07    0.27
  WS02006243WS02006242 CONDUIT     47.34     0  03:24      0.49    0.10    0.40
  WS02006242WS02006240 CONDUIT     65.03     0  00:03      0.90    0.26    0.50
  WS02006240WS02006239 CONDUIT     80.36     0  00:02      0.76    0.25    0.51
  WS02006239WS02006238 CONDUIT    121.08     0  00:01      0.88    0.39    0.63
  WS02006238WS02006235 CONDUIT    164.86     0  00:00      1.46    0.37    0.68
  WS02006235WS02006234 CONDUIT    211.14     0  03:22      1.09    2.23    0.62
  WS02006234WS02006232 CONDUIT    207.11     0  03:22      1.39    0.42    0.69
  WS02006232WS02006231 CONDUIT    203.68     0  03:22      0.76    0.43    0.65
  WS02006231WS02006230 CONDUIT    198.81     0  03:22      1.09    3.02    0.48
  WS02006230WS02006229 CONDUIT    206.53     0  03:22      0.90    4.60    0.77
  WS02006228WS02006109 CONDUIT    219.23     0  03:23      0.79    0.96    0.78
  WS02006116WS02004401 CONDUIT    188.39     0  03:25      0.47    0.26    0.53
  WS02006115WS02006116 CONDUIT    196.02     0  03:25      0.64    0.25    0.44
  WS02006113WS02006111 CONDUIT    210.58     0  03:24      1.80    0.25    0.28
  WS02006112WS02006115 CONDUIT    203.62     0  03:24      0.48    0.12    0.56
  WS02006111WS02006112 CONDUIT    209.28     0  03:24      0.93    0.10    0.53
  WS02006110WS02006113 CONDUIT    213.00     0  03:23      0.70    0.19    0.58
  WS02006109WS02006110 CONDUIT    217.30     0  03:23      0.54    0.42    0.74
  WS02004411WS02004412 CONDUIT    160.75     0  05:24      0.53    0.23    0.41
  WS02004401WS02004402 CONDUIT    180.30     0  03:25      0.46    0.22    0.57
  WS02004413WS02003067 CONDUIT    157.22     0  05:26      0.56    0.07    0.39
  WS02004412WS02004413 CONDUIT    158.31     0  05:25      0.41    0.11    0.51
  WS02004410WS02004411 CONDUIT    164.04     0  05:23      0.61    0.22    0.39
  WS02004409WS02004410 CONDUIT    168.21     0  05:23      0.70    0.22    0.36
  WS02004407WS02004409 CONDUIT    172.03     0  05:22      1.12    0.06    0.26
  WS02004406WS02004407 CONDUIT    172.18     0  05:22      0.52    0.08    0.44
  WS02004405WS02004406 CONDUIT    172.76     0  05:21      0.39    0.34    0.70
  WS02004404WS02004405 CONDUIT    173.65     0  05:21      0.46    1.70    0.69
  WS02004403WS02004404 CONDUIT    174.36     0  05:20      0.51    0.13    0.65
  WS02004402WS02004403 CONDUIT    176.15     0  05:20      0.50    0.25    0.60
  WS02004139WS02001211 CONDUIT    380.35     0  06:28      0.90    0.48    0.57
  WS02004138WS02004139 CONDUIT    396.19     0  00:00      3.65    0.08    0.42
  WS02003067WS02003066 CONDUIT    157.20     0  05:26      0.60    0.05    0.28
  WS02001213WS02003059 CONDUIT    387.83     0  06:28      0.88    0.64    0.69
  WS02001212WS02001213 CONDUIT    387.77     0  06:28      1.32    0.60    0.41
  WS02001211WS02001212 CONDUIT    387.73     0  06:28      0.78    0.30    0.61
  WS02003072WS02003073 CONDUIT    533.63     0  03:34      1.42    1.15    0.37
  WS02003069WS02003072 CONDUIT    533.82     0  03:33      1.35    0.26    0.38
  WS02003060WS02003069 CONDUIT    533.95     0  03:33      1.63    0.21    0.33
  WS02003059WS02003060 CONDUIT    387.93     0  06:28      0.95    0.25    0.55
  HS02004901HS02004770 CONDUIT      1.75     0  02:13      0.03    0.01    0.18
  HS02004876HS02004881 CONDUIT      4.90     0  02:34      0.19    0.05    0.04
  HS02004870HS02004876 CONDUIT      3.89     0  02:31      0.14    0.00    0.04
  HS02004842HS02004848 CONDUIT      1.30     0  02:32      0.01    0.00    0.25
  HS02004837HS02004842 CONDUIT      4.48     0  00:03      0.42    0.00    0.26
  HS02004830HS02004837 CONDUIT      9.77     0  02:21      0.30    0.01    0.05
  HS02004824HS02004830 CONDUIT      9.92     0  02:22      0.35    0.01    0.04
  HS02004817HS02004824 CONDUIT     12.07     0  02:25      0.17    0.01    0.33
  HS02004770HS02004777 CONDUIT      7.82     0  02:13      0.08    0.01    0.20
  HS02004799HS02004480 CONDUIT     20.16     0  02:31      0.21    0.03    0.14
  HS02004792HS02004799 CONDUIT     18.48     0  02:30      0.25    0.01    0.11
  HS02004788HS02004792 CONDUIT     11.05     0  02:34      0.42    0.01    0.04
  HS02004785HS02004788 CONDUIT      7.19     0  02:35      0.20    0.05    0.05
  HS02004777HS02004785 CONDUIT      7.13     0  02:32      0.07    0.01    0.14
  HS02004480HS02004478 CONDUIT     23.60     0  02:32      0.42    0.10    0.08
  HS02004479HS02004480 CONDUIT      3.65     0  02:15      0.15    0.00    0.14
  HS02004862HS02004870 CONDUIT      2.74     0  02:31      0.21    0.00    0.02
  HS02004848HS02004852 CONDUIT      0.72     0  02:27      0.12    0.00    0.01
  HS02004856HS02004862 CONDUIT      1.59     0  02:29      0.14    0.00    0.02
  HS02004852HS02004856 CONDUIT      0.71     0  02:30      0.02    0.00    0.06
  HS02004802HS02004478 CONDUIT     14.76     0  02:27      0.14    0.01    0.15
  HS02004478WS02006287 CONDUIT     38.32     0  02:31      0.60    0.01    0.07
  HS02004817HS02004807 CONDUIT     12.60     0  02:29      0.05    0.01    0.40
  HS02004807HS02004802 CONDUIT     14.84     0  02:24      0.18    0.03    0.19
  YS02001759YS02001757 CONDUIT     22.61     0  03:35      0.12    0.02    0.87
  YS02001762YS02001759 CONDUIT     13.03     0  03:35      0.17    0.02    0.80
  YS02001765YS02001762 CONDUIT     12.16     0  03:34      0.22    0.01    0.75
  YS02001770YS02001767 CONDUIT     12.83     0  03:39      0.24    0.05    0.69
  YS02001774YS02001770 CONDUIT      8.03     0  03:20      0.14    0.01    0.70
  YS02001779YS02001774 CONDUIT      4.25     0  03:22      0.02    0.00    0.62
  YS02001649YS02001757 CONDUIT     32.26     0  03:41      0.09    0.02    0.85
  YS02001767YS02001765 CONDUIT     12.39     0  03:39      0.26    0.02    0.71
  YS02006561YS02001783 CONDUIT     42.59     0  03:07      1.07    0.02    0.13
  YS02001783YS02001784 CONDUIT     42.58     0  03:07      0.66    0.06    0.19
  YS02001784YS02001785 CONDUIT     43.64     0  03:08      0.64    0.10    0.19
  YS02001788YS02001790 CONDUIT     43.76     0  03:09      1.06    0.03    0.14
  YS02001790YS02001791 CONDUIT     43.92     0  03:09      1.19    0.05    0.13
  YS02001791YS02001793 CONDUIT     44.43     0  03:22      2.40    0.02    0.08
  YS02001910YS02001907 CONDUIT     13.92     0  03:06      0.49    0.01    0.49
  YS02001786YS02001788 CONDUIT     43.69     0  03:08      0.91    0.08    0.15
  YS02001915YS02001910 CONDUIT     13.96     0  03:04      0.44    0.01    0.28
  YS02001918YS02001915 CONDUIT      6.21     0  03:08      0.44    0.00    0.11
  YS02001923YS02001920 CONDUIT      3.34     0  03:05      0.13    0.00    0.07
  YS02001926YS02001923 CONDUIT      3.30     0  03:04      0.21    0.00    0.05
  YS02001929YS02001926 CONDUIT      3.27     0  03:01      0.20    0.00    0.05
  YS02001920YS02001918 CONDUIT      6.21     0  03:06      0.21    0.01    0.08
  YS02001629YS02163301 CONDUIT      9.00     0  03:34      0.05    0.01    0.64
  YS02001619YS02001622 CONDUIT      7.58     0  03:00      0.36    0.01    0.26
  YS02001622YS02001625 CONDUIT      9.02     0  03:01      0.16    0.00    0.42
  YS02001625YS02001629 CONDUIT      7.97     0  03:40      0.07    0.00    0.41
  YS02163301YS02001633 CONDUIT     10.43     0  03:26      0.05    0.01    0.69
  YS02163601YS02164001 CONDUIT     15.81     0  03:41      0.04    0.01    0.75
  YS02164001YS02001641 CONDUIT     15.08     0  03:40      0.06    0.02    0.73
  YS02001641YS02001644 CONDUIT     15.10     0  03:27      0.07    0.05    0.74
  YS02001647YS02001649 CONDUIT     21.29     0  03:39      0.10    0.01    0.68
  YS02006553YS02006556 CONDUIT     29.43     0  03:09      0.18    0.03    0.57
  YS02006556YS02006558 CONDUIT     29.43     0  03:09      0.07    0.02    0.60
  YSB6556YSB1171       CONDUIT      2.09     0  01:22      0.03    0.00    0.41
  YS02001907YS02006553 CONDUIT     29.40     0  03:09      0.06    0.03    0.66
  YS02006558YS02006561 CONDUIT     42.60     0  03:06      1.31    0.09    0.17
  YS02001633YS02163601 CONDUIT     15.60     0  03:40      0.06    0.02    0.74
  YS02001644YS02001647 CONDUIT     22.13     0  03:40      0.09    0.01    0.66
  YS02001745YS02001748 CONDUIT      8.50     0  03:01      0.75    0.00    0.04
  YS02001748YS02001751 CONDUIT      8.54     0  03:01      0.63    0.00    0.20
  YS02001751YS02001754 CONDUIT     10.59     0  04:17      0.62    0.01    0.41
  YS02001754YS02001757 CONDUIT     14.92     0  04:51      0.33    0.01    0.74
  YS02001882YS02001884 CONDUIT      1.14     0  02:10      0.07    0.00    0.21
  YS02001884YS02001887 CONDUIT      3.43     0  02:13      0.04    0.00    0.30
  YS02001890YS02001895 CONDUIT     15.59     0  03:03      0.09    0.01    0.27
  YS02001895YS02001898 CONDUIT     15.54     0  03:04      0.30    0.03    0.14
  YS02001898YS02001901 CONDUIT     15.55     0  03:05      0.12    0.01    0.22
  YS02001901YS02001904 CONDUIT     15.52     0  03:05      0.18    0.02    0.27
  YS02001904YS02001907 CONDUIT     15.53     0  03:05      0.05    0.01    0.43
  YS02001887YS02001890 CONDUIT     15.71     0  03:00      0.10    0.03    0.36
  YS02001652YS02001649 CONDUIT     12.04     0  03:35      0.24    0.01    0.68
  YS02001655YS02001652 CONDUIT     11.47     0  03:42      0.67    0.01    0.44
  YS02001658YS02001655 CONDUIT     10.86     0  03:01      0.72    0.00    0.18
  YS02001661YS02001658 CONDUIT     10.86     0  03:01      0.78    0.00    0.05
  YS02001664YS02001661 CONDUIT     10.87     0  03:01      0.37    0.00    0.08
  YSB1154YSB6556       CONDUIT      2.12     0  02:14      0.19    0.00    0.30
  YSB1174YSB1171       CONDUIT      2.35     0  02:11      0.02    0.00    0.42
  YSB1171HS02004479    CONDUIT      3.75     0  02:15      0.54    0.00    0.31
  HS02004881HS02006253 CONDUIT      5.49     0  02:34      0.77    0.00    0.01
  YS02001793JiankangQianchi CONDUIT     43.93     0  03:22      7.33    0.00    0.52
  YS02001757CaochengTiaoxuchi CONDUIT     56.45     0  03:37      0.20    0.02    0.55
  WSF200WS02003060     CONDUIT    157.15     0  05:26      1.36    0.03    0.22
  1                    CONDUIT    535.00     0  03:35      2.80    0.19    0.29
  CC-Pump-1            PUMP         0.00     0  00:00              0.00
  CC-Pump-2            PUMP         0.00     0  00:00              0.00
  JK-Pump-1            PUMP       300.00     0  00:00              1.00
  JK-Pump-2            PUMP       683.00     0  00:00              1.00
  XR-Pump-1            PUMP        95.00     0  00:00              1.00
  XR-Pump-2            PUMP        95.00     0  00:00              1.00
  XR-Pump-3            PUMP        95.00     0  00:00              1.00
  XR-Pump-4            PUMP        95.00     0  00:00              1.00
  
  
  ***************************
  Flow Classification Summary
  ***************************
  
  -------------------------------------------------------------------------------------
                      Adjusted    ---------- Fraction of Time in Flow Class ---------- 
                       /Actual         Up    Down  Sub   Sup   Up    Down  Norm  Inlet 
  Conduit               Length    Dry  Dry   Dry   Crit  Crit  Crit  Crit  Ltd   Ctrl  
  -------------------------------------------------------------------------------------
  WS02003066WSF200        1.00   0.06  0.21  0.00  0.00  0.72  0.00  0.00  0.69  0.00
  WS02006287WS02006284    1.00   0.09  0.07  0.00  0.74  0.10  0.00  0.00  0.81  0.00
  WS02006284WS02006280    1.00   0.12  0.00  0.00  0.00  0.00  0.00  0.88  0.00  0.00
  WS02006280WS02006229    1.00   0.12  0.00  0.00  0.00  0.00  0.00  0.88  0.00  0.00
  WS02006229WS02006228    1.00   0.00  0.00  0.00  0.99  0.00  0.00  0.01  0.00  0.00
  WS02006256WS02006235    1.00   0.00  0.00  0.00  1.00  0.00  0.00  0.00  0.00  0.00
  WS02006253WS02006251    1.00   0.05  0.05  0.00  0.89  0.00  0.01  0.00  0.00  0.00
  WS02006252WS02006251    1.00   1.00  0.00  0.00  0.00  0.00  0.00  0.00  0.00  0.00
  WS02006251WS02006249    1.00   0.00  0.00  0.00  1.00  0.00  0.00  0.00  0.98  0.00
  WS02006249WS02006248    1.00   0.00  0.02  0.00  0.03  0.00  0.95  0.00  0.00  0.00
  WS02006248WS02006247    1.00   0.02  0.00  0.00  0.93  0.00  0.00  0.04  0.85  0.00
  WS02006247WS02006245    1.00   0.02  0.01  0.00  0.89  0.00  0.00  0.08  0.00  0.00
  WS02006245WS02006243    1.00   0.01  0.00  0.00  0.67  0.00  0.00  0.31  0.02  0.00
  WS02006243WS02006242    1.00   0.01  0.00  0.00  0.99  0.00  0.00  0.00  0.92  0.00
  WS02006242WS02006240    1.00   0.00  0.00  0.00  1.00  0.00  0.00  0.00  0.00  0.00
  WS02006240WS02006239    1.00   0.00  0.00  0.00  0.38  0.00  0.00  0.62  0.03  0.00
  WS02006239WS02006238    1.00   0.00  0.00  0.00  1.00  0.00  0.00  0.00  0.54  0.00
  WS02006238WS02006235    1.00   0.00  0.00  0.00  1.00  0.00  0.00  0.00  0.00  0.00
  WS02006235WS02006234    1.00   0.00  0.00  0.00  0.49  0.00  0.51  0.00  0.00  0.00
  WS02006234WS02006232    1.00   0.00  0.00  0.00  1.00  0.00  0.00  0.00  0.42  0.00
  WS02006232WS02006231    1.00   0.00  0.00  0.00  0.99  0.00  0.01  0.00  0.00  0.00
  WS02006231WS02006230    1.00   0.00  0.00  0.00  0.00  0.00  1.00  0.00  0.00  0.00
  WS02006230WS02006229    1.00   0.00  0.00  0.00  0.99  0.00  0.00  0.01  0.01  0.00
  WS02006228WS02006109    1.00   0.00  0.00  0.00  0.99  0.00  0.00  0.01  0.00  0.00
  WS02006116WS02004401    1.00   0.03  0.00  0.00  0.97  0.00  0.00  0.00  0.01  0.00
  WS02006115WS02006116    1.00   0.03  0.00  0.00  0.91  0.00  0.00  0.06  0.01  0.00
  WS02006113WS02006111    1.00   0.02  0.00  0.00  0.00  0.98  0.00  0.00  0.06  0.00
  WS02006112WS02006115    1.00   0.02  0.01  0.00  0.96  0.00  0.01  0.00  0.00  0.00
  WS02006111WS02006112    1.00   0.02  0.00  0.00  0.97  0.00  0.00  0.00  0.98  0.00
  WS02006110WS02006113    1.00   0.01  0.01  0.00  0.98  0.00  0.00  0.00  0.00  0.00
  WS02006109WS02006110    1.00   0.00  0.01  0.00  0.98  0.00  0.01  0.00  0.00  0.00
  WS02004411WS02004412    1.00   0.19  0.00  0.00  0.81  0.00  0.00  0.00  0.00  0.00
  WS02004401WS02004402    1.00   0.04  0.00  0.00  0.96  0.00  0.00  0.00  0.01  0.00
  WS02004413WS02003067    1.00   0.19  0.06  0.00  0.00  0.00  0.75  0.00  0.00  0.00
  WS02004412WS02004413    1.00   0.19  0.00  0.00  0.81  0.00  0.00  0.00  0.03  0.00
  WS02004410WS02004411    1.00   0.19  0.00  0.00  0.81  0.00  0.00  0.00  0.01  0.00
  WS02004409WS02004410    1.00   0.18  0.00  0.00  0.82  0.00  0.00  0.00  0.00  0.00
  WS02004407WS02004409    1.00   0.18  0.00  0.00  0.81  0.01  0.00  0.00  0.77  0.00
  WS02004406WS02004407    1.00   0.00  0.18  0.00  0.82  0.00  0.00  0.00  0.00  0.00
  WS02004405WS02004406    1.00   0.00  0.00  0.00  1.00  0.00  0.00  0.00  0.02  0.00
  WS02004404WS02004405    1.00   0.00  0.00  0.00  1.00  0.00  0.00  0.00  0.00  0.00
  WS02004403WS02004404    1.00   0.00  0.04  0.00  0.96  0.00  0.00  0.00  0.02  0.00
  WS02004402WS02004403    1.00   0.04  0.00  0.00  0.96  0.00  0.00  0.00  0.00  0.00
  WS02004139WS02001211    1.00   0.00  0.00  0.00  0.99  0.00  0.00  0.00  0.00  0.00
  WS02004138WS02004139    1.00   0.00  0.01  0.00  0.98  0.01  0.00  0.00  1.00  0.00
  WS02003067WS02003066    1.00   0.25  0.02  0.00  0.73  0.00  0.00  0.00  0.00  0.00
  WS02001213WS02003059    1.00   0.00  0.00  0.00  0.99  0.00  0.00  0.00  0.00  0.00
  WS02001212WS02001213    1.00   0.00  0.00  0.00  0.30  0.00  0.69  0.00  0.00  0.00
  WS02001211WS02001212    1.00   0.00  0.00  0.00  1.00  0.00  0.00  0.00  0.00  0.00
  WS02003072WS02003073    1.00   0.00  0.00  0.00  0.00  0.00  0.00  1.00  0.00  0.00
  WS02003069WS02003072    1.00   0.00  0.00  0.00  0.99  0.01  0.00  0.00  0.49  0.00
  WS02003060WS02003069    1.00   0.00  0.00  0.00  0.93  0.07  0.00  0.00  0.43  0.00
  WS02003059WS02003060    1.00   0.00  0.00  0.00  0.99  0.01  0.00  0.00  0.00  0.00
  HS02004901HS02004770    1.00   0.12  0.01  0.00  0.87  0.00  0.00  0.00  0.03  0.00
  HS02004876HS02004881    1.00   0.02  0.00  0.00  0.98  0.00  0.00  0.00  0.00  0.00
  HS02004870HS02004876    1.00   0.01  0.00  0.00  0.98  0.01  0.00  0.00  0.95  0.00
  HS02004842HS02004848    1.00   0.00  0.14  0.00  0.86  0.00  0.00  0.00  0.79  0.00
  HS02004837HS02004842    1.00   0.00  0.00  0.00  0.99  0.01  0.00  0.00  0.11  0.00
  HS02004830HS02004837    1.00   0.00  0.00  0.00  1.00  0.00  0.00  0.00  0.99  0.00
  HS02004824HS02004830    1.00   0.00  0.00  0.00  1.00  0.00  0.00  0.00  0.00  0.00
  HS02004817HS02004824    1.00   0.00  0.00  0.00  1.00  0.00  0.00  0.00  1.00  0.00
  HS02004770HS02004777    1.00   0.00  0.13  0.00  0.87  0.00  0.00  0.00  0.08  0.00
  HS02004799HS02004480    1.00   0.00  0.03  0.00  0.81  0.00  0.15  0.00  0.00  0.00
  HS02004792HS02004799    1.00   0.00  0.00  0.00  0.99  0.01  0.00  0.00  0.98  0.00
  HS02004788HS02004792    1.00   0.00  0.00  0.00  0.99  0.01  0.00  0.00  0.98  0.00
  HS02004785HS02004788    1.00   0.00  0.00  0.00  1.00  0.00  0.00  0.00  0.00  0.00
  HS02004777HS02004785    1.00   0.00  0.00  0.00  1.00  0.00  0.00  0.00  0.23  0.00
  HS02004480HS02004478    1.00   0.16  0.00  0.00  0.68  0.00  0.02  0.14  0.00  0.00
  HS02004479HS02004480    1.00   0.04  0.00  0.00  0.96  0.00  0.00  0.00  0.17  0.00
  HS02004862HS02004870    1.00   0.00  0.00  0.00  1.00  0.00  0.00  0.00  0.06  0.00
  HS02004848HS02004852    1.00   0.14  0.00  0.00  0.86  0.00  0.00  0.00  0.68  0.00
  HS02004856HS02004862    1.00   0.00  0.25  0.00  0.75  0.00  0.00  0.00  0.71  0.00
  HS02004852HS02004856    1.00   0.12  0.06  0.00  0.82  0.00  0.00  0.00  0.79  0.00
  HS02004802HS02004478    1.00   0.12  0.03  0.00  0.85  0.00  0.00  0.00  0.00  0.00
  HS02004478WS02006287    1.00   0.16  0.00  0.00  0.83  0.00  0.00  0.00  0.80  0.00
  HS02004817HS02004807    1.00   0.00  0.12  0.00  0.88  0.00  0.00  0.00  0.00  0.00
  HS02004807HS02004802    1.00   0.12  0.00  0.00  0.87  0.00  0.00  0.01  0.01  0.00
  YS02001759YS02001757    1.00   0.00  0.00  0.00  1.00  0.00  0.00  0.00  0.17  0.00
  YS02001762YS02001759    1.00   0.00  0.00  0.00  1.00  0.00  0.00  0.00  0.07  0.00
  YS02001765YS02001762    1.00   0.00  0.00  0.00  1.00  0.00  0.00  0.00  0.25  0.00
  YS02001770YS02001767    1.00   0.00  0.00  0.00  1.00  0.00  0.00  0.00  0.00  0.00
  YS02001774YS02001770    1.00   0.00  0.18  0.00  0.81  0.00  0.00  0.00  0.06  0.00
  YS02001779YS02001774    1.00   0.00  0.00  0.00  1.00  0.00  0.00  0.00  0.32  0.00
  YS02001649YS02001757    1.00   0.00  0.00  0.00  1.00  0.00  0.00  0.00  0.20  0.00
  YS02001767YS02001765    1.00   0.00  0.00  0.00  1.00  0.00  0.00  0.00  0.01  0.00
  YS02006561YS02001783    1.00   0.26  0.00  0.00  0.00  0.74  0.00  0.00  0.69  0.00
  YS02001783YS02001784    1.00   0.00  0.26  0.00  0.74  0.00  0.00  0.00  0.70  0.00
  YS02001784YS02001785    1.00   0.00  0.00  0.00  1.00  0.00  0.00  0.00  0.29  0.00
  YS02001788YS02001790    1.00   0.00  0.00  0.00  0.28  0.72  0.00  0.00  1.00  0.00
  YS02001790YS02001791    1.00   0.00  0.00  0.00  0.02  0.98  0.00  0.00  0.00  0.00
  YS02001791YS02001793    1.00   0.00  0.00  0.00  0.00  1.00  0.00  0.00  0.00  0.00
  YS02001910YS02001907    1.00   0.00  0.00  0.00  0.97  0.00  0.00  0.03  0.13  0.00
  YS02001786YS02001788    1.00   0.00  0.00  0.00  0.87  0.13  0.00  0.00  0.00  0.00
  YS02001915YS02001910    1.00   0.00  0.00  0.00  0.99  0.01  0.00  0.00  0.27  0.00
  YS02001918YS02001915    1.00   0.00  0.01  0.00  0.98  0.01  0.00  0.00  0.77  0.00
  YS02001923YS02001920    1.00   0.00  0.00  0.00  1.00  0.00  0.00  0.00  1.00  0.00
  YS02001926YS02001923    1.00   0.00  0.07  0.00  0.00  0.00  0.93  0.00  0.00  0.00
  YS02001929YS02001926    1.00   0.00  0.12  0.00  0.88  0.00  0.00  0.00  0.86  0.00
  YS02001920YS02001918    1.00   0.00  0.01  0.00  0.99  0.00  0.00  0.00  0.00  0.00
  YS02001629YS02163301    1.00   0.22  0.02  0.00  0.77  0.00  0.00  0.00  0.00  0.00
  YS02001619YS02001622    1.00   0.12  0.00  0.00  0.88  0.00  0.00  0.00  0.00  0.00
  YS02001622YS02001625    1.00   0.13  0.00  0.00  0.87  0.00  0.00  0.00  0.17  0.00
  YS02001625YS02001629    1.00   0.13  0.16  0.00  0.57  0.00  0.13  0.00  0.00  0.00
  YS02163301YS02001633    1.00   0.00  0.22  0.00  0.78  0.00  0.00  0.00  0.00  0.00
  YS02163601YS02164001    1.00   0.00  0.07  0.00  0.93  0.00  0.00  0.00  0.00  0.00
  YS02164001YS02001641    1.00   0.01  0.06  0.00  0.93  0.00  0.00  0.00  0.07  0.00
  YS02001641YS02001644    1.00   0.00  0.01  0.00  0.99  0.00  0.00  0.00  0.00  0.00
  YS02001647YS02001649    1.00   0.00  0.26  0.00  0.74  0.00  0.00  0.00  0.01  0.00
  YS02006553YS02006556    1.00   0.02  0.00  0.00  0.98  0.00  0.00  0.00  0.03  0.00
  YS02006556YS02006558    1.00   0.00  0.01  0.00  0.99  0.00  0.00  0.00  0.00  0.00
  YSB6556YSB1171          1.00   0.04  0.07  0.00  0.89  0.00  0.00  0.00  0.00  0.00
  YS02001907YS02006553    1.00   0.00  0.02  0.00  0.97  0.00  0.00  0.00  0.00  0.00
  YS02006558YS02006561    1.00   0.26  0.00  0.00  0.00  0.74  0.00  0.00  0.39  0.00
  YS02001633YS02163601    1.00   0.00  0.01  0.00  0.99  0.00  0.00  0.00  0.21  0.00
  YS02001644YS02001647    1.00   0.00  0.26  0.00  0.74  0.00  0.00  0.00  0.00  0.00
  YS02001745YS02001748    1.00   0.00  0.00  0.00  0.00  0.00  0.00  1.00  0.00  0.00
  YS02001748YS02001751    1.00   0.00  0.00  0.00  0.81  0.19  0.00  0.00  0.58  0.00
  YS02001751YS02001754    1.00   0.00  0.00  0.00  0.69  0.00  0.00  0.31  0.08  0.00
  YS02001754YS02001757    1.00   0.00  0.00  0.00  0.99  0.01  0.00  0.00  0.31  0.00
  YS02001882YS02001884    1.00   0.20  0.02  0.00  0.78  0.00  0.00  0.00  0.00  0.00
  YS02001884YS02001887    1.00   0.06  0.04  0.00  0.90  0.00  0.00  0.00  0.00  0.00
  YS02001890YS02001895    1.00   0.01  0.22  0.00  0.77  0.00  0.00  0.00  0.00  0.00
  YS02001895YS02001898    1.00   0.23  0.01  0.00  0.73  0.00  0.04  0.00  0.00  0.00
  YS02001898YS02001901    1.00   0.21  0.03  0.00  0.76  0.00  0.00  0.00  0.02  0.00
  YS02001901YS02001904    1.00   0.21  0.00  0.00  0.79  0.00  0.00  0.00  0.00  0.00
  YS02001904YS02001907    1.00   0.00  0.20  0.00  0.79  0.00  0.00  0.00  0.00  0.00
  YS02001887YS02001890    1.00   0.00  0.00  0.00  0.97  0.00  0.03  0.00  0.00  0.00
  YS02001652YS02001649    1.00   0.00  0.00  0.00  1.00  0.00  0.00  0.00  0.30  0.00
  YS02001655YS02001652    1.00   0.00  0.00  0.00  0.70  0.00  0.00  0.30  0.08  0.00
  YS02001658YS02001655    1.00   0.00  0.20  0.00  0.61  0.19  0.00  0.00  0.74  0.00
  YS02001661YS02001658    1.00   0.19  0.00  0.00  0.00  0.80  0.00  0.00  0.73  0.00
  YS02001664YS02001661    1.00   0.12  0.00  0.00  0.88  0.00  0.00  0.00  0.86  0.00
  YSB1154YSB6556          1.00   0.11  0.00  0.00  0.89  0.00  0.00  0.00  0.03  0.00
  YSB1174YSB1171          1.00   0.05  0.04  0.00  0.92  0.00  0.00  0.00  0.00  0.00
  YSB1171HS02004479       1.00   0.04  0.00  0.00  0.95  0.00  0.00  0.01  0.14  0.00
  HS02004881HS02006253    1.00   0.05  0.00  0.00  0.00  0.00  0.00  0.95  0.00  0.00
  YS02001793JiankangQianchi    1.00   0.00  0.00  0.00  0.70  0.30  0.00  0.00  0.76  0.00
  YS02001757CaochengTiaoxuchi    1.00   0.00  0.44  0.00  0.56  0.00  0.00  0.00  0.00  0.00
  WSF200WS02003060        1.00   0.00  0.06  0.00  0.82  0.12  0.00  0.00  0.83  0.00
  1                       1.00   0.00  0.00  0.00  0.00  1.00  0.00  0.00  0.41  0.00
  
  
  *************************
  Conduit Surcharge Summary
  *************************
  
  ----------------------------------------------------------------------------
                                                           Hours        Hours 
                         --------- Hours Full --------   Above Full   Capacity
  Conduit                Both Ends  Upstream  Dnstream   Normal Flow   Limited
  ----------------------------------------------------------------------------
  WS02006256WS02006235        0.73      0.74      3.83      0.59         0.01
  WS02006235WS02006234        0.01      0.01      0.01      0.66         0.01
  WS02006231WS02006230        0.01      0.01      0.01      0.93         0.01
  WS02006230WS02006229        0.01      0.01      0.01      2.06         0.01
  WS02004404WS02004405        0.01      0.01      0.01      0.87         0.01
  WS02003072WS02003073        0.01      0.01      0.01      0.21         0.01
  YS02001793JiankangQianchi        0.01      0.01      2.07      0.01         0.01
  
  
  ***************
  Pumping Summary
  ***************
  
  ---------------------------------------------------------------------------------------------------------
                                                  Min       Avg       Max     Total     Power    % Time Off
                        Percent   Number of      Flow      Flow      Flow    Volume     Usage    Pump Curve
  Pump                 Utilized   Start-Ups       LPS       LPS       LPS  10^6 ltr     Kw-hr    Low   High
  ---------------------------------------------------------------------------------------------------------
  CC-Pump-1                0.00           0      0.00      0.00      0.00     0.000      0.00    0.0    0.0
  CC-Pump-2                0.00           0      0.00      0.00      0.00     0.000      0.00    0.0    0.0
  JK-Pump-1               31.92           4      0.00     80.69    300.00     0.639     11.88    0.0    0.0
  JK-Pump-2               14.90           3      0.00     61.87    683.00     0.199      3.73    0.0   98.6
  XR-Pump-1               80.85           5      0.00     83.12     95.00     1.910     40.91    0.0    0.0
  XR-Pump-2               74.46           6      0.00     79.68     95.00     1.682     36.28    0.0    0.0
  XR-Pump-3               68.08           6      0.00     78.14     95.00     1.511     32.09    0.0    0.0
  XR-Pump-4               68.08           6      0.00     78.14     95.00     1.511     32.09    0.0    0.0
  
  
  ***************************
  Link Pollutant Load Summary
  ***************************
  
  ------------------------------------------------------------------------------------------
                                 COD            SS            TN            TP         NH4-N
  Link                            kg            kg            kg            kg            kg
  ------------------------------------------------------------------------------------------
  WS02003066WSF200            86.672       137.064         7.360         0.900         4.552
  WS02006287WS02006284        58.833        93.902         5.254         0.649         3.263
  WS02006284WS02006280        59.255        94.576         5.294         0.654         3.288
  WS02006280WS02006229        59.230        94.537         5.292         0.654         3.287
  WS02006229WS02006228        94.603       149.182         7.982         0.975         4.933
  WS02006256WS02006235        33.727        52.010         2.594         0.310         1.590
  WS02006253WS02006251         2.388         3.801         0.147         0.017         0.087
  WS02006252WS02006251         0.000         0.000         0.000         0.000         0.000
  WS02006251WS02006249         2.939         4.684         0.199         0.023         0.120
  WS02006249WS02006248         2.885         4.595         0.194         0.022         0.117
  WS02006248WS02006247         2.988         4.757         0.202         0.023         0.122
  WS02006247WS02006245         3.510         5.565         0.242         0.028         0.146
  WS02006245WS02006243         4.244         6.700         0.298         0.035         0.180
  WS02006243WS02006242         6.049         9.491         0.436         0.051         0.265
  WS02006242WS02006240         9.360        14.596         0.692         0.082         0.422
  WS02006240WS02006239        12.498        19.435         0.938         0.112         0.573
  WS02006239WS02006238        15.986        24.813         1.212         0.144         0.741
  WS02006238WS02006235        18.345        28.444         1.396         0.167         0.854
  WS02006235WS02006234        35.452        54.787         2.701         0.322         1.653
  WS02006234WS02006232        35.993        55.628         2.743         0.327         1.679
  WS02006232WS02006231        35.789        55.310         2.727         0.325         1.670
  WS02006231WS02006230        35.367        54.652         2.695         0.322         1.650
  WS02006230WS02006229        35.724        55.204         2.722         0.325         1.667
  WS02006228WS02006109        94.155       148.471         7.939         0.969         4.907
  WS02006116WS02004401        98.267       155.187         8.355         1.022         5.168
  WS02006115WS02006116        99.224       156.668         8.434         1.032         5.216
  WS02006113WS02006111       101.091       159.593         8.612         1.054         5.328
  WS02006112WS02006115        99.989       157.869         8.500         1.040         5.258
  WS02006111WS02006112       100.814       159.160         8.588         1.051         5.313
  WS02006110WS02006113       101.342       159.993         8.635         1.057         5.342
  WS02006109WS02006110       102.060       161.133         8.701         1.065         5.383
  WS02004411WS02004412        89.979       142.310         7.663         0.938         4.741
  WS02004401WS02004402        97.257       153.613         8.270         1.012         5.115
  WS02004413WS02003067        87.571       138.485         7.441         0.910         4.602
  WS02004412WS02004413        88.618       140.159         7.540         0.923         4.664
  WS02004410WS02004411        90.942       143.824         7.748         0.949         4.794
  WS02004409WS02004410        91.722       145.051         7.817         0.957         4.836
  WS02004407WS02004409        92.368       146.058         7.872         0.964         4.871
  WS02004406WS02004407        92.624       146.450         7.893         0.966         4.883
  WS02004405WS02004406        94.330       149.137         8.044         0.985         4.977
  WS02004404WS02004405        95.663       151.187         8.151         0.998         5.042
  WS02004403WS02004404        95.242       150.481         8.102         0.991         5.011
  WS02004402WS02004403        96.191       151.961         8.182         1.001         5.061
  WS02004139WS02001211      1197.839      1916.296       114.903        14.360        71.804
  WS02004138WS02004139      1197.447      1915.669       114.865        14.355        71.780
  WS02003067WS02003066        86.783       137.240         7.370         0.902         4.558
  WS02001213WS02003059      1244.873      1991.552       119.419        14.924        74.626
  WS02001212WS02001213      1243.860      1989.931       119.322        14.912        74.566
  WS02001211WS02001212      1246.602      1994.318       119.585        14.945        74.730
  WS02003072WS02003073      1442.736      2306.543       137.460        17.160        85.854
  WS02003069WS02003072      1446.202      2312.082       137.794        17.202        86.063
  WS02003060WS02003069      1444.952      2310.073       137.670        17.186        85.986
  WS02003059WS02003060      1244.127      1990.359       119.347        14.915        74.582
  HS02004901HS02004770         0.267         0.419         0.006         0.000         0.003
  HS02004876HS02004881         2.193         3.488         0.145         0.017         0.087
  HS02004870HS02004876         2.027         3.232         0.148         0.017         0.090
  HS02004842HS02004848         0.121         0.182         0.003         0.000         0.001
  HS02004837HS02004842         4.557         7.287         0.434         0.054         0.271
  HS02004830HS02004837        43.094        68.930         4.096         0.511         2.558
  HS02004824HS02004830        43.847        70.135         4.168         0.520         2.603
  HS02004817HS02004824        44.695        71.448         4.210         0.525         2.628
  HS02004770HS02004777         1.113         1.758         0.029         0.002         0.013
  HS02004799HS02004480        17.382        27.641         1.440         0.175         0.886
  HS02004792HS02004799        17.601        27.992         1.491         0.182         0.919
  HS02004788HS02004792        14.409        23.010         1.282         0.158         0.795
  HS02004785HS02004788         2.605         4.155         0.180         0.021         0.108
  HS02004777HS02004785         2.187         3.487         0.141         0.016         0.084
  HS02004480HS02004478        17.258        27.439         1.382         0.168         0.849
  HS02004479HS02004480         4.806         7.683         0.415         0.051         0.258
  HS02004862HS02004870         1.792         2.843         0.144         0.017         0.088
  HS02004848HS02004852         0.116         0.173         0.003         0.000         0.001
  HS02004856HS02004862         0.254         0.395         0.006         0.000         0.003
  HS02004852HS02004856         0.120         0.180         0.003         0.000         0.001
  HS02004802HS02004478        41.957        67.074         3.908         0.486         2.437
  HS02004478WS02006287        59.021        94.202         5.272         0.651         3.274
  HS02004817HS02004807        43.261        69.156         4.073         0.507         2.542
  HS02004807HS02004802        42.801        68.424         3.989         0.496         2.488
  YS02001759YS02001757         7.443        10.858         0.380         0.040         0.221
  YS02001762YS02001759         5.369         8.056         0.324         0.036         0.193
  YS02001765YS02001762         5.737         8.685         0.377         0.043         0.227
  YS02001770YS02001767         3.577         5.157         0.152         0.014         0.084
  YS02001774YS02001770         1.055         1.525         0.041         0.004         0.022
  YS02001779YS02001774         1.006         1.554         0.075         0.009         0.046
  YS02001649YS02001757         8.337        11.769         0.356         0.035         0.195
  YS02001767YS02001765         6.189         9.411         0.424         0.049         0.256
  YS02006561YS02001783        36.315        55.388         2.598         0.305         1.580
  YS02001783YS02001784        36.259        55.302         2.594         0.305         1.578
  YS02001784YS02001785        43.645        67.126         3.304         0.394         2.022
  YS02001788YS02001790        44.369        68.293         3.376         0.403         2.067
  YS02001790YS02001791        45.386        69.925         3.475         0.415         2.128
  YS02001791YS02001793        45.343        69.857         3.471         0.415         2.126
  YS02001910YS02001907        23.972        37.539         2.065         0.251         1.277
  YS02001786YS02001788        43.920        67.572         3.332         0.397         2.039
  YS02001915YS02001910        24.252        37.940         2.082         0.253         1.287
  YS02001918YS02001915        21.729        34.418         2.010         0.249         1.252
  YS02001923YS02001920         1.828         2.570         0.098         0.010         0.057
  YS02001926YS02001923         1.436         1.937         0.059         0.006         0.033
  YS02001929YS02001926         1.099         1.396         0.026         0.001         0.013
  YS02001920YS02001918        21.769        34.478         2.013         0.250         1.254
  YS02001629YS02163301         1.399         1.913         0.044         0.003         0.021
  YS02001619YS02001622         1.904         2.565         0.056         0.003         0.025
  YS02001622YS02001625         1.788         2.418         0.052         0.003         0.023
  YS02001625YS02001629         1.491         2.028         0.045         0.003         0.021
  YS02163301YS02001633         1.362         1.874         0.047         0.004         0.023
  YS02163601YS02164001         4.834         6.920         0.248         0.026         0.143
  YS02164001YS02001641         4.504         6.405         0.219         0.023         0.125
  YS02001641YS02001644         4.332         6.106         0.193         0.020         0.109
  YS02001647YS02001649         5.711         7.907         0.216         0.020         0.117
  YS02006553YS02006556        30.640        47.143         2.331         0.278         1.428
  YS02006556YS02006558        30.508        46.902         2.305         0.275         1.412
  YSB6556YSB1171               1.547         2.462         0.119         0.014         0.073
  YS02001907YS02006553        30.526        46.947         2.319         0.277         1.421
  YS02006558YS02006561        36.340        55.425         2.600         0.306         1.582
  YS02001633YS02163601         4.935         6.982         0.232         0.024         0.132
  YS02001644YS02001647         5.911         8.154         0.224         0.021         0.122
  YS02001745YS02001748         2.652         3.609         0.072         0.004         0.035
  YS02001748YS02001751         2.964         4.113         0.102         0.008         0.054
  YS02001751YS02001754         2.923         4.080         0.105         0.008         0.055
  YS02001754YS02001757         4.904         7.304         0.307         0.034         0.183
  YS02001882YS02001884         0.102         0.151         0.006         0.001         0.004
  YS02001884YS02001887         0.442         0.663         0.028         0.003         0.017
  YS02001890YS02001895         7.735        11.142         0.330         0.034         0.190
  YS02001895YS02001898         7.661        11.032         0.325         0.034         0.187
  YS02001898YS02001901         7.576        10.912         0.321         0.033         0.184
  YS02001901YS02001904         7.830        11.345         0.351         0.037         0.204
  YS02001904YS02001907         8.805        12.947         0.455         0.050         0.269
  YS02001887YS02001890         8.591        12.475         0.404         0.043         0.236
  YS02001652YS02001649         3.462         4.980         0.157         0.015         0.085
  YS02001655YS02001652         3.786         5.433         0.173         0.017         0.094
  YS02001658YS02001655         2.878         3.949         0.081         0.005         0.035
  YS02001661YS02001658         2.866         3.929         0.081         0.005         0.035
  YS02001664YS02001661         2.869         3.932         0.081         0.005         0.035
  YSB1154YSB6556               0.979         1.544         0.054         0.006         0.032
  YSB1174YSB1171               1.081         1.734         0.080         0.010         0.049
  YSB1171HS02004479            4.571         7.308         0.391         0.048         0.242
  HS02004881HS02006253         2.333         3.715         0.147         0.017         0.088
  YS02001793JiankangQianchi        45.541        70.183         3.489         0.417         2.138
  YS02001757CaochengTiaoxuchi        13.876        19.694         0.580         0.055         0.321
  WSF200WS02003060            86.487       136.764         7.343         0.898         4.541
  1                         1458.560      2331.871       138.992        17.352        86.813
  CC-Pump-1                    0.000         0.000         0.000         0.000         0.000
  CC-Pump-2                    0.000         0.000         0.000         0.000         0.000
  JK-Pump-1                   34.428        53.098         2.650         0.317         1.624
  JK-Pump-2                    0.237         0.363         0.018         0.002         0.011
  XR-Pump-1                  353.187       565.028        33.880         4.234        21.172
  XR-Pump-2                  300.697       481.054        28.844         3.605        18.025
  XR-Pump-3                  271.804       434.829        26.072         3.258        16.293
  XR-Pump-4                  271.804       434.829        26.072         3.258        16.293
  

  Analysis begun on:  Sat Jul 10 23:50:30 2021
  Analysis ended on:  Sat Jul 10 23:50:31 2021
  Total elapsed time: 00:00:01