
  EPA STORM WATER MANAGEMENT MODEL - VERSION 5.1 (Build 5.3.0.dev0)
  --------------------------------------------------------------

  WARNING 04: minimum elevation drop used for Conduit WS02004404WS02004405
  WARNING 03: negative offset ignored for Link YS02001904YS02001907
  
  *********************************************************
  NOTE: The summary statistics displayed in this report are
  based on results found at every computational time step,  
  not just on results from each reporting time step.
  *********************************************************
  
  ****************
  Analysis Options
  ****************
  Flow Units ............... LPS
  Process Models:
    Rainfall/Runoff ........ YES
    RDII ................... NO
    Snowmelt ............... NO
    Groundwater ............ NO
    Flow Routing ........... YES
    Ponding Allowed ........ NO
    Water Quality .......... YES
  Infiltration Method ...... HORTON
  Flow Routing Method ...... DYNWAVE
  Surcharge Method ......... EXTRAN
  Starting Date ............ 08/28/2015 08:00:00
  Ending Date .............. 08/28/2015 15:50:00
  Antecedent Dry Days ...... 8.0
  Report Time Step ......... 00:01:00
  Wet Time Step ............ 00:01:00
  Dry Time Step ............ 00:01:00
  Routing Time Step ........ 5.00 sec
  Variable Time Step ....... YES
  Maximum Trials ........... 8
  Number of Threads ........ 4
  Head Tolerance ........... 0.001500 m
  
  
  **************************        Volume         Depth
  Runoff Quantity Continuity     hectare-m            mm
  **************************     ---------       -------
  Total Precipitation ......         2.330         5.102
  Evaporation Loss .........         0.000         0.000
  Infiltration Loss ........         0.517         1.131
  Surface Runoff ...........         1.319         2.888
  Final Storage ............         0.495         1.083
  Continuity Error (%) .....        -0.022
  
  
  **************************           COD            SS            TN            TP         NH4-N
  Runoff Quality Continuity             kg            kg            kg            kg            kg
  **************************    ----------    ----------    ----------    ----------    ----------
  Initial Buildup ..........     41378.656     70582.865      1804.177       168.684      1032.807
  Surface Buildup ..........        14.491        17.994         3.048         0.282         1.805
  Wet Deposition ...........         0.000         0.000         0.000         0.000         0.000
  Sweeping Removal .........         0.000         0.000         0.000         0.000         0.000
  Infiltration Loss ........        22.640        39.226         0.454         0.030         0.213
  BMP Removal ..............         0.000         0.000         0.000         0.000         0.000
  Surface Runoff ...........       742.721      1250.325        15.187         0.978         7.150
  Remaining Buildup ........     40627.548     69310.912      1791.578       167.956      1027.247
  Continuity Error (%) .....         0.001         0.001         0.000         0.000         0.000
  
  
  **************************        Volume        Volume
  Flow Routing Continuity        hectare-m      10^6 ltr
  **************************     ---------     ---------
  Dry Weather Inflow .......         0.616         6.165
  Wet Weather Inflow .......         1.319        13.186
  Groundwater Inflow .......         0.000         0.000
  RDII Inflow ..............         0.000         0.000
  External Inflow ..........         0.102         1.024
  External Outflow .........         1.417        14.165
  Flooding Loss ............         0.230         2.300
  Evaporation Loss .........         0.000         0.000
  Exfiltration Loss ........         0.000         0.000
  Initial Stored Volume ....         0.076         0.761
  Final Stored Volume ......         0.558         5.583
  Continuity Error (%) .....        -4.318
  
  
  **************************           COD            SS            TN            TP         NH4-N
  Quality Routing Continuity            kg            kg            kg            kg            kg
  **************************    ----------    ----------    ----------    ----------    ----------
  Dry Weather Inflow .......      1541.201      2465.922       147.955        18.494        92.472
  Wet Weather Inflow .......       742.465      1249.930        15.182         0.978         7.148
  Groundwater Inflow .......         0.000         0.000         0.000         0.000         0.000
  RDII Inflow ..............         0.000         0.000         0.000         0.000         0.000
  External Inflow ..........       183.418       293.469        17.608         2.201        11.005
  External Outflow .........      1787.898      2901.307       146.952        17.970        90.795
  Flooding Loss ............       129.575       218.498         3.641         0.319         1.943
  Exfiltration Loss ........         0.000         0.000         0.000         0.000         0.000
  Mass Reacted .............         0.000         0.000         0.000         0.000         0.000
  Initial Stored Mass ......         0.000         0.000         0.000         0.000         0.000
  Final Stored Mass ........       424.832       687.008        22.668         2.523        13.393
  Continuity Error (%) .....         5.058         5.051         4.141         3.972         4.063
  
  
  *************************
  Highest Continuity Errors
  *************************
  Node YS02001774 (39.24%)
  Node HS02004842 (26.63%)
  Node YS02001884 (20.72%)
  Node JK-storage (-20.33%)
  Node YSB1171 (6.35%)
  
  
  ***************************
  Time-Step Critical Elements
  ***************************
  Link WS02006252WS02006251 (59.22%)
  Link WS02006238WS02006235 (11.70%)
  Link WS02006280WS02006229 (10.37%)
  Link YS02001793JiankangQianchi (6.76%)
  Link WS02006228WS02006109 (2.00%)
  
  
  ********************************
  Highest Flow Instability Indexes
  ********************************
  Link WS02006113WS02006111 (51)
  Link WS02006111WS02006112 (17)
  Link YS02001779YS02001774 (15)
  Link YS02001774YS02001770 (14)
  Link YS02001765YS02001762 (12)
  
  
  *************************
  Routing Time Step Summary
  *************************
  Minimum Time Step           :     0.13 sec
  Average Time Step           :     1.39 sec
  Maximum Time Step           :     5.00 sec
  Percent in Steady State     :    -0.00
  Average Iterations per Step :     3.01
  Percent Not Converging      :     8.44
  
  
  ***************************
  Subcatchment Runoff Summary
  ***************************
  
  ------------------------------------------------------------------------------------------------------------------------------
                            Total      Total      Total      Total     Imperv       Perv      Total       Total     Peak  Runoff
                           Precip      Runon       Evap      Infil     Runoff     Runoff     Runoff      Runoff   Runoff   Coeff
  Subcatchment                 mm         mm         mm         mm         mm         mm         mm    10^6 ltr      LPS
  ------------------------------------------------------------------------------------------------------------------------------
  sub0                       5.10       0.00       0.00       0.36       4.70       0.00       4.70        0.00     1.61   0.921
  sub1                       5.10       0.00       0.00       0.56       4.45       0.00       4.45        0.03     8.98   0.873
  sub2                       5.10       0.00       0.00       1.89       3.14       0.00       3.14        0.03     7.97   0.615
  sub3                       5.10       0.00       0.00       1.89       3.10       0.00       3.10        0.07    16.40   0.608
  sub4                       5.10       0.00       0.00       0.56       4.32       0.00       4.32        0.09    18.31   0.846
  sub5                       5.10       0.00       0.00       0.36       4.65       0.00       4.65        0.05    15.96   0.912
  sub7                       5.10       0.00       0.00       0.46       4.58       0.00       4.58        0.02     5.53   0.898
  sub8                       5.10       0.00       0.00       0.46       4.57       0.00       4.57        0.03     9.85   0.896
  sub9                       5.10       0.00       0.00       0.46       4.57       0.00       4.57        0.02     7.31   0.896
  sub10                      5.10       0.00       0.00       0.41       4.61       0.00       4.61        0.05    15.91   0.904
  sub11                      5.10       0.00       0.00       0.41       4.63       0.00       4.63        0.05    18.48   0.907
  sub12                      5.10       0.00       0.00       0.66       4.39       0.00       4.39        0.04    15.22   0.861
  sub14                      5.10       0.00       0.00       0.46       4.57       0.00       4.57        0.04    14.30   0.896
  sub15                      5.10       0.00       0.00       1.53       3.51       0.00       3.51        0.06    19.45   0.688
  sub16                      5.10       0.00       0.00       1.68       3.38       0.00       3.38        0.04    13.49   0.662
  sub17                      5.10       0.00       0.00       1.63       3.43       0.00       3.43        0.03    10.96   0.672
  sub22                      5.10       0.00       0.00       2.19       2.87       0.00       2.87        0.18    63.10   0.562
  sub23                      5.10       0.00       0.00       1.89       3.17       0.00       3.17        0.15    53.58   0.622
  sub60                      5.10       0.00       0.00       0.61       3.17       0.00       3.17        0.96    87.75   0.621
  sub61                      5.10       0.00       0.00       0.87       3.36       0.00       3.36        1.04   111.90   0.659
  sub62                      5.10       0.00       0.00       0.41       3.62       0.00       3.62        1.11   113.80   0.709
  sub63                      5.10       0.00       0.00       1.48       2.99       0.00       2.99        0.90   105.14   0.586
  sub64                      5.10       0.00       0.00       0.77       3.03       0.00       3.03        0.92    83.25   0.594
  sub65                      5.10       0.00       0.00       0.66       3.07       0.00       3.07        0.94    84.39   0.601
  sub66                      5.10       0.00       0.00       1.48       2.64       0.00       2.64        0.81    76.68   0.517
  sub67                      5.10       0.00       0.00       0.41       3.95       0.00       3.95        1.22   148.37   0.775
  sub68                      5.10       0.00       0.00       0.71       3.57       0.00       3.57        1.10   124.25   0.700
  sub69                      5.10       0.00       0.00       0.77       3.84       0.00       3.84        0.90   125.60   0.752
  sub70                      5.10       3.91       0.00       3.06       4.78       0.00       4.78        1.09    98.82   0.530
  sub71                      5.10       0.00       0.00       0.41       3.47       0.00       3.47        0.82    78.96   0.679
  sub72                      5.10       0.00       0.00       0.36       2.48       0.00       2.48        0.51    37.24   0.486
  1                          5.10       4.65       0.00       1.31       4.91       0.71       5.62        1.32    94.30   0.577
  2                          5.10       0.00       0.00       2.89       1.15       0.23       1.39        0.55    77.05   0.272
  
  
  ****************************
  Subcatchment Washoff Summary
  ****************************
  
  ------------------------------------------------------------------------------------------
                                 COD            SS            TN            TP         NH4-N
  Subcatchment                    kg            kg            kg            kg            kg
  ------------------------------------------------------------------------------------------
  sub0                         0.752         1.400         0.012         0.001         0.006
  sub1                         2.996         5.615         0.056         0.004         0.027
  sub2                         1.702         3.064         0.038         0.002         0.017
  sub3                         4.079         7.229         0.090         0.006         0.041
  sub4                         6.457        11.952         0.134         0.008         0.064
  sub5                         6.890        12.756         0.121         0.009         0.058
  sub7                         1.608         3.085         0.030         0.002         0.015
  sub8                         2.421         4.730         0.049         0.003         0.024
  sub9                         2.046         3.943         0.040         0.002         0.019
  sub10                        5.742        10.780         0.105         0.007         0.050
  sub11                        5.746        10.962         0.107         0.007         0.052
  sub12                        4.840         9.104         0.086         0.006         0.041
  sub14                        4.335         8.274         0.083         0.005         0.040
  sub15                        5.048         9.169         0.099         0.007         0.046
  sub16                        3.244         5.915         0.063         0.005         0.029
  sub17                        2.963         5.352         0.055         0.004         0.026
  sub22                       14.909        26.528         0.291         0.021         0.134
  sub23                        9.224        17.049         0.206         0.013         0.093
  sub60                       47.564        79.293         1.025         0.058         0.489
  sub61                       60.658       100.949         1.187         0.077         0.569
  sub62                       64.033       108.510         1.335         0.079         0.638
  sub63                       45.688        75.172         0.998         0.067         0.454
  sub64                       56.174        90.083         1.086         0.075         0.513
  sub65                       57.595        92.766         1.124         0.076         0.533
  sub66                       34.208        55.538         0.776         0.048         0.357
  sub67                       96.579       162.772         1.765         0.124         0.849
  sub68                       68.523       115.528         1.388         0.088         0.658
  sub69                       64.870       111.392         1.267         0.085         0.600
  sub70                       97.089       166.148         2.066         0.136         0.951
  sub71                       42.377        72.350         0.948         0.051         0.451
  sub72                       27.018        42.451         0.538         0.034         0.258
  1                           49.532        85.441         1.094         0.072         0.495
  2                            7.773        12.565         0.258         0.015         0.107
  ------------------------------------------------------------------------------------------
  System                     904.680      1527.865        18.520         1.199         8.702
  
  
  ******************
  Node Depth Summary
  ******************
  
  ---------------------------------------------------------------------------------
                                 Average  Maximum  Maximum  Time of Max    Reported
                                   Depth    Depth      HGL   Occurrence   Max Depth
  Node                 Type       Meters   Meters   Meters  days hr:min      Meters
  ---------------------------------------------------------------------------------
  WS02001211           JUNCTION     0.68     0.79     5.63     0  05:10        0.79
  WS02001212           JUNCTION     0.40     0.51     5.57     0  05:10        0.51
  WS02001213           JUNCTION     0.63     0.76     5.52     0  05:09        0.76
  WS02003069           JUNCTION     0.43     0.58     5.17     0  05:08        0.58
  WS02003072           JUNCTION     0.49     0.64     5.01     0  05:08        0.64
  WS02003073           JUNCTION     0.30     0.39     4.46     0  05:09        0.39
  WS02003060           JUNCTION     0.38     0.51     5.45     0  05:08        0.51
  WS02003066           JUNCTION     0.22     0.30     5.85     0  05:06        0.30
  WS02003059           JUNCTION     0.68     0.81     5.50     0  05:08        0.81
  WS02003067           JUNCTION     0.54     0.70     6.02     0  05:06        0.70
  WS02004401           JUNCTION     0.63     0.86     6.86     0  05:03        0.86
  WS02004402           JUNCTION     0.66     0.88     6.84     0  05:03        0.88
  WS02004403           JUNCTION     0.69     0.90     6.83     0  05:03        0.90
  WS02004404           JUNCTION     0.76     0.97     6.82     0  05:03        0.97
  WS02004406           JUNCTION     0.77     0.96     6.79     0  05:04        0.96
  WS02004409           JUNCTION     0.44     0.67     6.44     0  05:04        0.67
  WS02004410           JUNCTION     0.47     0.68     6.40     0  05:05        0.68
  WS02004411           JUNCTION     0.48     0.69     6.37     0  05:05        0.69
  WS02004412           JUNCTION     0.50     0.70     6.34     0  05:05        0.70
  WS02004413           JUNCTION     0.67     0.86     6.33     0  05:06        0.86
  WS02004405           JUNCTION     0.76     0.96     6.81     0  05:04        0.96
  WS02006109           JUNCTION     0.70     1.00     7.61     0  04:54        0.99
  WS02006110           JUNCTION     0.70     0.93     7.52     0  04:54        0.93
  WS02006111           JUNCTION     0.20     0.29     7.00     0  04:55        0.29
  WS02006112           JUNCTION     0.79     1.07     6.95     0  05:03        1.06
  WS02006113           JUNCTION     0.31     0.46     7.35     0  05:23        0.46
  WS02006115           JUNCTION     0.52     0.76     6.90     0  05:03        0.76
  WS02006116           JUNCTION     0.60     0.84     6.88     0  05:03        0.84
  WS02006230           JUNCTION     0.66     1.13     7.87     0  04:54        1.13
  WS02006231           JUNCTION     0.44     0.88     8.00     0  04:54        0.88
  WS02006232           JUNCTION     0.58     1.07     8.11     0  04:54        1.06
  WS02006234           JUNCTION     0.50     1.08     8.24     0  04:54        1.08
  WS02006235           JUNCTION     0.54     1.17     8.34     0  05:23        1.16
  WS02006238           JUNCTION     0.56     1.20     8.34     0  04:54        1.19
  WS02006240           JUNCTION     0.47     1.14     8.43     0  05:23        1.13
  WS02006242           JUNCTION     0.53     1.22     8.49     0  04:53        1.21
  WS02006243           JUNCTION     0.42     1.13     8.55     0  04:59        1.12
  WS02006245           JUNCTION     0.40     1.12     8.60     0  05:22        1.10
  WS02006247           JUNCTION     0.42     1.13     8.63     0  04:59        1.12
  WS02006248           JUNCTION     0.37     1.08     8.67     0  04:53        1.08
  WS02006249           JUNCTION     0.40     1.09     8.69     0  04:53        1.09
  WS02006239           JUNCTION     0.52     1.18     8.39     0  04:54        1.17
  WS02006251           JUNCTION     0.38     1.22     8.89     0  04:53        1.12
  WS02006252           JUNCTION     0.29     0.78     9.02     0  04:53        0.68
  WS02006253           JUNCTION     0.41     1.26     8.90     0  04:53        1.15
  WS02006256           JUNCTION     1.30     2.35     9.28     0  00:00        2.35
  WS02004138           JUNCTION     0.15     0.20     7.45     0  00:00        0.19
  WS02004139           JUNCTION     0.62     0.74     5.65     0  05:11        0.74
  WS02004407           JUNCTION     0.20     0.30     6.61     0  05:04        0.30
  WS02006228           JUNCTION     0.70     1.04     7.69     0  04:54        1.03
  WS02006229           JUNCTION     0.67     1.03     7.73     0  04:54        1.03
  WS02006280           JUNCTION     0.05     0.16     8.43     0  02:13        0.16
  WS02006284           JUNCTION     0.34     0.50     8.90     0  02:13        0.50
  WS02006287           JUNCTION     0.07     0.23     9.19     0  02:12        0.23
  WSF200               JUNCTION     0.19     0.30     5.54     0  05:06        0.30
  HS02004901           JUNCTION     0.10     0.25    10.07     0  02:10        0.25
  HS02004881           JUNCTION     0.00     0.03     9.06     0  02:12        0.03
  HS02004876           JUNCTION     0.03     0.11     9.14     0  02:10        0.11
  HS02004870           JUNCTION     0.01     0.05     9.33     0  02:13        0.05
  HS02004862           JUNCTION     0.01     0.05     9.44     0  02:13        0.05
  HS02004856           JUNCTION     0.07     0.11     9.53     0  02:13        0.11
  HS02004852           JUNCTION     0.01     0.03     9.54     0  02:14        0.03
  HS02004848           JUNCTION     0.00     0.03     9.63     0  02:12        0.03
  HS02004842           JUNCTION     0.33     0.36     9.63     0  02:12        0.36
  HS02004837           JUNCTION     0.02     0.05     9.63     0  02:12        0.05
  HS02004830           JUNCTION     0.03     0.07     9.53     0  02:12        0.07
  HS02004824           JUNCTION     0.02     0.04     9.45     0  02:15        0.04
  HS02004817           JUNCTION     0.42     0.54     9.39     0  02:13        0.54
  HS02004807           JUNCTION     0.10     0.22     9.39     0  02:13        0.22
  HS02004802           JUNCTION     0.14     0.25     9.38     0  02:13        0.25
  HS02004799           JUNCTION     0.09     0.28     9.49     0  02:11        0.28
  HS02004792           JUNCTION     0.02     0.11     9.63     0  02:10        0.11
  HS02004788           JUNCTION     0.02     0.08     9.98     0  02:11        0.08
  HS02004785           JUNCTION     0.03     0.15    10.05     0  02:11        0.15
  HS02004777           JUNCTION     0.12     0.27    10.06     0  02:10        0.27
  HS02004770           JUNCTION     0.09     0.24    10.07     0  02:10        0.24
  HS02004480           JUNCTION     0.05     0.22     9.46     0  02:11        0.22
  HS02004479           JUNCTION     0.09     0.26     9.46     0  02:11        0.26
  HS02004478           JUNCTION     0.04     0.14     9.37     0  02:12        0.14
  YS02001745           JUNCTION     0.59     0.84     8.36     0  04:45        0.84
  YS02001748           JUNCTION     0.97     1.28     8.36     0  04:49        1.28
  YS02001751           JUNCTION     1.15     1.48     8.36     0  04:42        1.48
  YS02001754           JUNCTION     1.39     1.76     8.36     0  04:50        1.75
  YS02001762           JUNCTION     1.59     1.97     8.37     0  04:49        1.96
  YS02001765           JUNCTION     1.54     1.92     8.37     0  04:49        1.91
  YS02001767           JUNCTION     1.51     1.88     8.37     0  04:49        1.87
  YS02001770           JUNCTION     1.50     1.88     8.38     0  04:52        1.86
  YS02001774           JUNCTION     1.57     1.95     8.37     0  04:52        1.93
  YS02001779           JUNCTION     1.32     1.68     8.37     0  04:49        1.67
  YS02001882           JUNCTION     0.27     0.50     7.21     0  02:36        0.50
  YS02001884           JUNCTION     0.36     0.60     7.21     0  02:35        0.60
  YS02001759           JUNCTION     1.62     2.00     8.36     0  04:49        1.99
  YS02001887           JUNCTION     0.44     0.67     7.21     0  02:36        0.67
  YS02001890           JUNCTION     0.47     0.70     7.21     0  02:36        0.70
  YS02001898           JUNCTION     0.24     0.46     7.19     0  02:40        0.46
  YS02001901           JUNCTION     0.36     0.58     7.19     0  02:37        0.58
  YS02001904           JUNCTION     0.34     0.56     7.19     0  02:43        0.56
  YS02001907           JUNCTION     0.66     0.90     7.19     0  02:43        0.90
  YS02001910           JUNCTION     0.45     0.69     7.19     0  02:40        0.68
  YS02001915           JUNCTION     0.26     0.47     7.19     0  02:40        0.47
  YS02001918           JUNCTION     0.08     0.12     7.19     0  02:42        0.12
  YS02001619           JUNCTION     1.11     1.47     8.40     0  04:29        1.46
  YS02001629           JUNCTION     1.45     1.84     8.39     0  04:28        1.83
  YS02001641           JUNCTION     1.56     1.93     8.37     0  04:28        1.93
  YS02001644           JUNCTION     1.56     1.92     8.35     0  04:28        1.92
  YS02001652           JUNCTION     1.41     1.77     8.37     0  04:49        1.76
  YS02001655           JUNCTION     1.17     1.52     8.37     0  04:49        1.51
  YS02001920           JUNCTION     0.17     0.22     7.23     0  02:49        0.22
  YS02001923           JUNCTION     0.06     0.09     7.35     0  03:01        0.09
  YS02001926           JUNCTION     0.14     0.19     7.63     0  03:01        0.19
  YS02001929           JUNCTION     0.07     0.09     7.79     0  03:01        0.09
  YS02001658           JUNCTION     0.91     1.23     8.37     0  04:49        1.22
  YS02001661           JUNCTION     0.69     0.97     8.37     0  04:47        0.96
  YS02001664           JUNCTION     0.26     0.45     8.38     0  04:28        0.45
  YS02001622           JUNCTION     1.13     1.50     8.40     0  04:28        1.48
  YS02001633           JUNCTION     1.54     1.94     8.39     0  04:28        1.93
  YS02001649           JUNCTION     1.60     1.98     8.37     0  04:49        1.97
  YS02001757           JUNCTION     1.72     2.10     8.36     0  04:49        2.09
  YS02001895           JUNCTION     0.23     0.46     7.20     0  02:38        0.45
  YS02001625           JUNCTION     1.41     1.78     8.38     0  04:28        1.78
  YS02163301           JUNCTION     1.48     1.88     8.39     0  04:28        1.87
  YS02163601           JUNCTION     1.59     1.99     8.38     0  04:28        1.98
  YS02164001           JUNCTION     1.54     1.92     8.38     0  04:28        1.91
  YS02001647           JUNCTION     1.39     1.75     8.36     0  04:49        1.74
  YSB1154              JUNCTION     0.23     0.40     9.46     0  02:12        0.40
  YSB6556              JUNCTION     0.12     0.29     9.46     0  02:11        0.29
  YSB1174              JUNCTION     0.18     0.35     9.46     0  02:11        0.35
  YSB1171              JUNCTION     0.38     0.56     9.46     0  02:11        0.56
  YS02006553           JUNCTION     0.67     0.91     7.19     0  02:44        0.91
  YS02006561           JUNCTION     0.13     0.25     6.91     0  02:37        0.25
  YS02006556           JUNCTION     0.64     0.88     7.19     0  02:37        0.88
  YS02006558           JUNCTION     0.69     0.92     7.19     0  02:39        0.92
  YS02001783           JUNCTION     0.23     0.68     6.82     0  02:30        0.68
  YS02001784           JUNCTION     0.27     0.75     6.82     0  02:30        0.70
  YS02001786           JUNCTION     0.23     0.74     6.77     0  02:31        0.73
  YS02001788           JUNCTION     0.18     0.78     6.76     0  02:30        0.77
  YS02001790           JUNCTION     0.23     1.58     7.23     0  02:28        1.06
  YS02001791           JUNCTION     0.19     1.38     6.85     0  02:28        1.18
  YS02001793           JUNCTION     0.22     1.79     6.62     0  03:18        1.78
  WSC                  OUTFALL      0.29     0.39     1.06     0  05:10        0.39
  JK-storage           STORAGE      1.75     5.80     6.60     0  02:29        5.80
  CC-storage           STORAGE      1.01     1.35     8.35     0  04:46        1.35
  XR-storage           STORAGE      2.35     6.16     4.16     0  07:16        6.16
  
  
  *******************
  Node Inflow Summary
  *******************
  
  -------------------------------------------------------------------------------------------------
                                  Maximum  Maximum                  Lateral       Total        Flow
                                  Lateral    Total  Time of Max      Inflow      Inflow     Balance
                                   Inflow   Inflow   Occurrence      Volume      Volume       Error
  Node                 Type           LPS      LPS  days hr:min    10^6 ltr    10^6 ltr     Percent
  -------------------------------------------------------------------------------------------------
  WS02001211           JUNCTION      7.35   389.28     0  05:38       0.207        7.93       0.514
  WS02001212           JUNCTION      0.00   391.11     0  05:38           0         7.9       0.357
  WS02001213           JUNCTION      0.00   392.77     0  05:38           0        7.88       0.330
  WS02003069           JUNCTION      0.32   935.84     0  05:08     0.00902        14.2       0.258
  WS02003072           JUNCTION      0.00   935.79     0  05:08           0        14.2       0.307
  WS02003073           JUNCTION      1.82   937.66     0  05:09      0.0514        14.2       0.355
  WS02003060           JUNCTION     16.53   935.54     0  05:07       0.466        14.3       0.244
  WS02003066           JUNCTION      0.00   540.22     0  05:06           0        6.03       0.084
  WS02003059           JUNCTION      0.00   395.57     0  05:40           0        7.86       0.519
  WS02003067           JUNCTION      0.00   540.04     0  05:06           0        6.04       0.169
  WS02004401           JUNCTION      0.00   547.39     0  05:03           0         6.3       0.382
  WS02004402           JUNCTION      0.00   546.58     0  05:03           0        6.28       0.355
  WS02004403           JUNCTION      0.00   546.10     0  05:03           0        6.25       0.320
  WS02004404           JUNCTION      0.16   546.28     0  05:03     0.00457        6.24       0.237
  WS02004406           JUNCTION      0.00   546.26     0  05:04           0         6.2       0.580
  WS02004409           JUNCTION      0.00   545.09     0  05:04           0        6.16       0.311
  WS02004410           JUNCTION      0.00   543.12     0  05:04           0        6.14       0.346
  WS02004411           JUNCTION      0.00   541.73     0  05:05           0        6.12       0.351
  WS02004412           JUNCTION      0.00   540.95     0  05:05           0         6.1       0.372
  WS02004413           JUNCTION      0.00   540.32     0  05:05           0        6.08       0.544
  WS02004405           JUNCTION      0.04   546.39     0  05:04     0.00107        6.23       0.353
  WS02006109           JUNCTION      1.23   550.78     0  04:54      0.0347        6.41       0.289
  WS02006110           JUNCTION      0.00   550.73     0  04:54           0        6.39       0.331
  WS02006111           JUNCTION      0.00   573.35     0  04:54           0        6.35       0.080
  WS02006112           JUNCTION     10.96   554.43     0  04:55      0.0294        6.38       0.525
  WS02006113           JUNCTION      0.00   551.01     0  04:54           0        6.37       0.192
  WS02006115           JUNCTION      0.00   557.53     0  05:02           0        6.35       0.380
  WS02006116           JUNCTION      0.00   548.49     0  05:03           0        6.32       0.326
  WS02006230           JUNCTION     10.28   531.87     0  05:02        0.29        5.44       0.267
  WS02006231           JUNCTION      0.00   521.88     0  04:53           0        5.16       0.313
  WS02006232           JUNCTION      0.00   522.02     0  04:53           0        5.17       0.355
  WS02006234           JUNCTION      0.00   522.29     0  04:53           0        5.18       0.208
  WS02006235           JUNCTION      0.00   523.07     0  04:53           0        5.35       0.225
  WS02006238           JUNCTION      0.00   393.28     0  07:50           0        3.15       0.280
  WS02006240           JUNCTION      0.00   394.27     0  07:50           0        3.04       0.554
  WS02006242           JUNCTION      0.00   394.44     0  07:50           0        2.99       0.626
  WS02006243           JUNCTION      0.00   394.62     0  07:50           0        2.95       0.262
  WS02006245           JUNCTION      0.00   394.81     0  07:50           0        2.95       0.605
  WS02006247           JUNCTION      0.00   395.00     0  07:50           0        2.96       0.426
  WS02006248           JUNCTION      0.00   395.40     0  07:50           0        2.96       0.252
  WS02006249           JUNCTION      0.00   424.60     0  04:53           0        3.02       0.636
  WS02006239           JUNCTION      0.00   393.54     0  07:50           0         3.1       0.326
  WS02006251           JUNCTION      0.08   411.73     0  04:53     0.00217         3.1       0.536
  WS02006252           JUNCTION      0.00   400.00     0  04:50           0        2.88       0.017
  WS02006253           JUNCTION      1.61   128.81     0  05:20     0.00381       0.227       5.859
  WS02006256           JUNCTION      0.00   983.00     0  02:40           0        4.38      -0.029
  WS02004138           JUNCTION      0.00   380.00     0  00:00           0        7.75       0.077
  WS02004139           JUNCTION      0.32   395.85     0  00:00     0.00905        7.76       0.593
  WS02004407           JUNCTION      0.00   545.39     0  05:04           0        6.17       0.139
  WS02006228           JUNCTION      0.00   549.43     0  04:54           0        6.39       0.244
  WS02006229           JUNCTION      0.00   550.11     0  04:53           0        6.41       0.254
  WS02006280           JUNCTION      0.00   251.61     0  02:13           0       0.989       0.007
  WS02006284           JUNCTION      0.10   251.60     0  02:13      0.0027        0.99       0.117
  WS02006287           JUNCTION      0.00   251.46     0  02:12           0       0.988       0.073
  WSF200               JUNCTION      0.00   540.30     0  05:06           0        6.03       0.078
  HS02004901           JUNCTION     13.49    13.49     0  02:07      0.0354      0.0355       5.203
  HS02004881           JUNCTION      5.53    48.68     0  02:12      0.0154       0.163       0.054
  HS02004876           JUNCTION      8.98    43.42     0  02:12      0.0296       0.148       0.356
  HS02004870           JUNCTION      9.85    34.68     0  02:12      0.0292       0.118       0.090
  HS02004862           JUNCTION      8.17    25.51     0  02:13      0.0349      0.0894       0.186
  HS02004856           JUNCTION      7.31    17.44     0  02:12       0.022       0.056       2.639
  HS02004852           JUNCTION      0.00    10.62     0  02:12           0       0.034       0.148
  HS02004848           JUNCTION     16.40    16.40     0  02:14      0.0698      0.0698       0.062
  HS02004842           JUNCTION      0.00     6.31     0  02:22           0      0.0488      36.300
  HS02004837           JUNCTION     22.26    27.66     0  02:11        0.23       0.266       0.307
  HS02004830           JUNCTION      0.15    27.79     0  02:12     0.00423       0.256       0.483
  HS02004824           JUNCTION     18.36    45.99     0  02:14      0.0914       0.346       0.156
  HS02004817           JUNCTION      0.60    46.58     0  02:15      0.0169       0.363       4.816
  HS02004807           JUNCTION     18.48    63.51     0  02:13      0.0537         0.4       1.068
  HS02004802           JUNCTION      0.00    63.87     0  02:15           0       0.396       1.039
  HS02004799           JUNCTION     14.30   160.27     0  02:10      0.0435        0.52       0.451
  HS02004792           JUNCTION     63.38   146.26     0  02:10       0.189       0.477       0.087
  HS02004788           JUNCTION     21.12    85.07     0  02:11       0.107       0.289       0.135
  HS02004785           JUNCTION      0.15    64.40     0  02:10     0.00423       0.184       0.261
  HS02004777           JUNCTION      0.03    64.79     0  02:09    0.000846       0.184       2.893
  HS02004770           JUNCTION     53.58    66.00     0  02:08       0.151       0.185       1.702
  HS02004480           JUNCTION      0.00   188.93     0  02:11           0       0.608       0.120
  HS02004479           JUNCTION      0.00    29.41     0  02:13           0         0.1       0.732
  HS02004478           JUNCTION      0.00   251.44     0  02:12           0       0.989       0.059
  YS02001745           JUNCTION     87.75   101.03     0  03:17        0.96        0.96       0.848
  YS02001748           JUNCTION      0.04   157.44     0  03:09     0.00127       0.956       2.340
  YS02001751           JUNCTION      0.01   202.79     0  03:08     0.00031       0.934       2.544
  YS02001754           JUNCTION      0.26   115.12     0  03:13     0.00733       0.916       2.735
  YS02001762           JUNCTION      0.00   124.57     0  03:07           0        1.04       2.102
  YS02001765           JUNCTION      0.00   123.18     0  03:07           0        1.04       2.413
  YS02001767           JUNCTION      0.54   128.58     0  02:32      0.0151        1.06       3.496
  YS02001770           JUNCTION    113.95   137.42     0  02:35        1.12        1.13       2.901
  YS02001774           JUNCTION      0.00    44.11     0  02:09           0      0.0646      64.569
  YS02001779           JUNCTION      0.01    31.29     0  02:32    0.000141      0.0261     141.151
  YS02001882           JUNCTION      0.00     4.39     0  02:04           0     0.00614      39.091
  YS02001884           JUNCTION      0.00    13.16     0  02:05           0       0.024      26.137
  YS02001759           JUNCTION    111.94   233.92     0  02:38        1.04        2.04       1.152
  YS02001887           JUNCTION    148.82   149.70     0  02:33        1.23        1.24       0.587
  YS02001890           JUNCTION      0.00   148.80     0  02:33           0        1.22       0.657
  YS02001898           JUNCTION      0.00   148.84     0  02:36           0        1.21       0.189
  YS02001901           JUNCTION      0.00   148.94     0  02:36           0        1.21       0.471
  YS02001904           JUNCTION      0.00   149.17     0  02:37           0         1.2       0.436
  YS02001907           JUNCTION      0.00   267.53     0  02:43           0        2.59       0.866
  YS02001910           JUNCTION      0.00   121.27     0  03:00           0         1.4       0.742
  YS02001915           JUNCTION     78.98   119.57     0  02:49       0.819         1.4       0.334
  YS02001918           JUNCTION      0.00    40.40     0  03:01           0       0.584       0.208
  YS02001619           JUNCTION     76.68    76.68     0  02:43       0.808       0.808       1.539
  YS02001629           JUNCTION      0.00   131.34     0  03:19           0       0.729       4.090
  YS02001641           JUNCTION      0.00   160.86     0  02:38           0        1.57       1.362
  YS02001644           JUNCTION     83.29   243.28     0  02:49       0.922        2.47       1.078
  YS02001652           JUNCTION      0.00   134.94     0  02:38           0       0.849       2.841
  YS02001655           JUNCTION      0.15   213.91     0  03:12     0.00434       0.874       2.804
  YS02001920           JUNCTION      2.87    40.16     0  03:01      0.0809       0.586       0.365
  YS02001923           JUNCTION      0.04    37.29     0  03:01     0.00106       0.505       0.064
  YS02001926           JUNCTION      0.05    37.28     0  03:01     0.00147       0.506       0.455
  YS02001929           JUNCTION     37.24    37.24     0  03:01       0.505       0.505       0.063
  YS02001658           JUNCTION      0.00   176.85     0  03:14           0       0.891       2.355
  YS02001661           JUNCTION      0.00   265.14     0  04:26           0        0.98       1.451
  YS02001664           JUNCTION    105.14   233.76     0  04:27       0.905        0.98       0.192
  YS02001622           JUNCTION      0.00    97.57     0  02:37           0       0.797       4.156
  YS02001633           JUNCTION     84.59   164.67     0  02:37       0.949        1.63       1.999
  YS02001649           JUNCTION      0.00   359.88     0  02:39           0         3.2       1.181
  YS02001757           JUNCTION      0.00   645.08     0  02:44           0        6.04       1.554
  YS02001895           JUNCTION      0.00   149.08     0  02:33           0        1.21       0.318
  YS02001625           JUNCTION      0.00   130.20     0  03:19           0       0.765       5.389
  YS02163301           JUNCTION      0.00    84.06     0  02:34           0        0.71       3.517
  YS02163601           JUNCTION      0.11   162.16     0  02:39      0.0031        1.59       1.931
  YS02164001           JUNCTION      0.00   160.69     0  02:52           0        1.57       1.312
  YS02001647           JUNCTION      0.00   245.04     0  02:48           0        2.41       1.195
  YSB1154              JUNCTION     15.96    15.96     0  02:10      0.0527      0.0539       2.751
  YSB6556              JUNCTION      0.00    15.82     0  02:11           0      0.0548       2.324
  YSB1174              JUNCTION     15.22    15.22     0  02:06      0.0384      0.0392       3.388
  YSB1171              JUNCTION      0.00    29.22     0  02:11           0      0.0995       6.782
  YS02006553           JUNCTION      0.00   266.45     0  02:44           0        2.58       0.561
  YS02006561           JUNCTION      0.00   405.26     0  02:39           0        3.65       0.020
  YS02006556           JUNCTION      0.00   266.57     0  02:44           0        2.58       0.406
  YS02006558           JUNCTION    125.13   390.19     0  02:38        1.12        3.68       0.123
  YS02001783           JUNCTION      0.00   390.76     0  02:38           0        3.65       0.043
  YS02001784           JUNCTION      1.06   434.65     0  02:31      0.0299        3.68       0.066
  YS02001786           JUNCTION      0.06   433.56     0  02:31     0.00159        3.68       0.067
  YS02001788           JUNCTION      0.07   478.36     0  02:37       0.002        3.68       0.039
  YS02001790           JUNCTION      0.15   540.09     0  02:37     0.00437        3.68       0.020
  YS02001791           JUNCTION      0.00   589.25     0  02:37           0        3.68       0.007
  YS02001793           JUNCTION      0.00   624.70     0  02:38           0        3.68      -0.032
  WSC                  OUTFALL       0.00   937.79     0  05:10           0        14.2       0.000
  JK-storage           STORAGE       0.00   666.84     0  02:41           0        3.84     -16.893
  CC-storage           STORAGE       0.00   645.81     0  02:45           0        5.95       0.977
  XR-storage           STORAGE     358.39   358.39     0  02:43        7.52        8.12      -1.293
  
  
  **********************
  Node Surcharge Summary
  **********************
  
  Surcharging occurs when water rises above the top of the highest conduit.
  ---------------------------------------------------------------------
                                               Max. Height   Min. Depth
                                   Hours       Above Crown    Below Rim
  Node                 Type      Surcharged         Meters       Meters
  ---------------------------------------------------------------------
  WS02006109           JUNCTION        1.22          0.176        1.644
  WS02006110           JUNCTION        0.28          0.023        1.827
  WS02006112           JUNCTION        0.32          0.069        1.611
  WS02006230           JUNCTION        0.24          0.045        1.525
  WS02006231           JUNCTION        0.42          0.166        1.364
  WS02006232           JUNCTION        1.51          0.367        1.113
  WS02006234           JUNCTION        0.93          0.364        0.876
  WS02006235           JUNCTION        1.17          0.464        0.826
  WS02006238           JUNCTION        1.30          0.479        0.951
  WS02006240           JUNCTION        1.02          0.426        0.964
  WS02006242           JUNCTION        1.27          0.490        0.330
  WS02006243           JUNCTION        0.82          0.422        0.348
  WS02006245           JUNCTION        0.74          0.405        0.445
  WS02006247           JUNCTION        0.79          0.423        0.337
  WS02006248           JUNCTION        0.65          0.360        0.020
  WS02006249           JUNCTION        0.72          0.390        0.000
  WS02006239           JUNCTION        1.08          0.437        0.853
  WS02006251           JUNCTION        0.21          0.190        0.990
  WS02006252           JUNCTION        1.52          0.375        0.725
  WS02006253           JUNCTION        0.21          0.220        2.260
  WS02006256           JUNCTION        6.37          2.050        0.000
  WS02006228           JUNCTION        1.17          0.207        1.993
  YS02001748           JUNCTION        3.62          0.200        0.990
  YS02001751           JUNCTION        4.37          0.483        0.717
  YS02001754           JUNCTION        4.78          0.705        0.445
  YS02001762           JUNCTION        5.39          0.965        0.185
  YS02001765           JUNCTION        5.34          0.919        0.181
  YS02001767           JUNCTION        5.29          0.885        0.145
  YS02001770           JUNCTION        5.23          0.852        0.068
  YS02001774           JUNCTION        5.38          0.951        0.099
  YS02001779           JUNCTION        4.70          0.680        0.000
  YS02001759           JUNCTION        5.42          1.000        0.210
  YS02001619           JUNCTION        4.31          0.473        0.137
  YS02001629           JUNCTION        4.30          0.465        0.005
  YS02001641           JUNCTION        5.36          0.930        0.170
  YS02001644           JUNCTION        5.37          0.920        0.000
  YS02001652           JUNCTION        4.88          0.742        0.388
  YS02001655           JUNCTION        4.43          0.521        0.679
  YS02001658           JUNCTION        3.70          0.230        1.070
  YS02001622           JUNCTION        4.34          0.496        0.124
  YS02001633           JUNCTION        5.33          0.918        0.142
  YS02001649           JUNCTION        5.40          0.975        0.075
  YS02001757           JUNCTION        5.51          1.102        0.108
  YS02001625           JUNCTION        4.98          0.780        0.000
  YS02163301           JUNCTION        5.27          0.877        0.153
  YS02163601           JUNCTION        5.40          0.987        0.093
  YS02164001           JUNCTION        5.34          0.918        0.182
  YS02001647           JUNCTION        4.93          0.751        0.149
  YS02001790           JUNCTION        0.51          0.781        0.376
  YS02001791           JUNCTION        0.64          0.582        1.338
  YS02001793           JUNCTION        0.85          0.790        1.810
  
  
  *********************
  Node Flooding Summary
  *********************
  
  Flooding refers to all water that overflows a node, whether it ponds or not.
  --------------------------------------------------------------------------
                                                             Total   Maximum
                                 Maximum   Time of Max       Flood    Ponded
                        Hours       Rate    Occurrence      Volume     Depth
  Node                 Flooded       LPS   days hr:min    10^6 ltr    Meters
  --------------------------------------------------------------------------
  WS02006249              0.17    100.37      0  04:53       0.037     0.000
  WS02006256              2.14    788.45      0  04:54       2.049     0.000
  YS02001779              0.01      4.22      0  04:52       0.000     0.000
  YS02001644              0.21     45.53      0  04:48       0.016     0.000
  YS02001625              0.01     15.86      0  04:29       0.000     0.000
  JK-storage              0.30    381.25      0  03:18       0.197     0.000
  
  
  **********************
  Storage Volume Summary
  **********************
  
  --------------------------------------------------------------------------------------------------
                         Average     Avg  Evap Exfil       Maximum     Max    Time of Max    Maximum
                          Volume    Pcnt  Pcnt  Pcnt        Volume    Pcnt     Occurrence    Outflow
  Storage Unit           1000 m3    Full  Loss  Loss       1000 m3    Full    days hr:min        LPS
  --------------------------------------------------------------------------------------------------
  JK-storage               0.088      30     0     0         0.291     100       0  02:29     983.00
  CC-storage               2.813      18     0     0         3.753      24       0  04:46     400.00
  XR-storage               0.282      30     0     0         0.740      80       0  07:16     380.00
  
  
  ***********************
  Outfall Loading Summary
  ***********************
  
  ---------------------------------------------------------------------------------------------------------------------------------
                         Flow       Avg       Max       Total         Total         Total         Total         Total         Total
                         Freq      Flow      Flow      Volume           COD            SS            TN            TP         NH4-N
  Outfall Node           Pcnt       LPS       LPS    10^6 ltr            kg            kg            kg            kg            kg
  ---------------------------------------------------------------------------------------------------------------------------------
  WSC                   99.98    569.16    937.79      14.165      1788.075      2901.589       146.968        17.972        90.805
  ---------------------------------------------------------------------------------------------------------------------------------
  System                99.98    569.16    937.79      14.165      1788.075      2901.589       146.968        17.972        90.805
  
  
  ********************
  Link Flow Summary
  ********************
  
  -----------------------------------------------------------------------------
                                 Maximum  Time of Max   Maximum    Max/    Max/
                                  |Flow|   Occurrence   |Veloc|    Full    Full
  Link                 Type          LPS  days hr:min     m/sec    Flow   Depth
  -----------------------------------------------------------------------------
  WS02003066WSF200     CONDUIT    540.30     0  05:06      2.76    0.09    0.23
  WS02006287WS02006284 CONDUIT    251.50     0  02:13      1.73    0.12    0.24
  WS02006284WS02006280 CONDUIT    251.61     0  02:13      1.97    0.11    0.22
  WS02006280WS02006229 CONDUIT    251.62     0  02:13      3.18    0.05    0.16
  WS02006229WS02006228 CONDUIT    549.43     0  04:54      1.09    1.82    1.00
  WS02006256WS02006235 CONDUIT    288.92     0  00:00      4.23    3.06    1.00
  WS02006253WS02006251 CONDUIT    127.88     0  05:20      0.53    0.38    1.00
  WS02006252WS02006251 CONDUIT    403.55     0  04:53      3.21    1.48    1.00
  WS02006251WS02006249 CONDUIT    424.60     0  04:53      1.12    1.22    1.00
  WS02006249WS02006248 CONDUIT    395.40     0  07:50      1.17    2.17    1.00
  WS02006248WS02006247 CONDUIT    395.00     0  07:50      1.13    0.86    1.00
  WS02006247WS02006245 CONDUIT    394.81     0  07:50      1.09    3.13    1.00
  WS02006245WS02006243 CONDUIT    394.62     0  07:50      1.09    1.17    1.00
  WS02006243WS02006242 CONDUIT    394.44     0  07:50      1.02    0.84    1.00
  WS02006242WS02006240 CONDUIT    394.27     0  07:50      1.02    1.57    1.00
  WS02006240WS02006239 CONDUIT    393.54     0  07:50      1.02    1.24    1.00
  WS02006239WS02006238 CONDUIT    393.28     0  07:50      1.02    1.26    1.00
  WS02006238WS02006235 CONDUIT    393.36     0  07:50      1.45    0.88    1.00
  WS02006235WS02006234 CONDUIT    522.29     0  04:53      1.36    5.51    1.00
  WS02006234WS02006232 CONDUIT    522.02     0  04:53      1.39    1.06    1.00
  WS02006232WS02006231 CONDUIT    521.88     0  04:53      1.36    1.09    1.00
  WS02006231WS02006230 CONDUIT    521.59     0  05:02      1.38    7.91    1.00
  WS02006230WS02006229 CONDUIT    535.52     0  04:53      1.39   11.92    1.00
  WS02006228WS02006109 CONDUIT    549.55     0  04:54      1.09    2.40    1.00
  WS02006116WS02004401 CONDUIT    547.39     0  05:03      1.00    0.75    0.85
  WS02006115WS02006116 CONDUIT    548.49     0  05:03      1.02    0.70    0.77
  WS02006113WS02006111 CONDUIT    573.35     0  04:54      2.48    0.69    0.47
  WS02006112WS02006115 CONDUIT    557.53     0  05:02      0.80    0.33    0.87
  WS02006111WS02006112 CONDUIT    554.36     0  04:55      1.60    0.26    0.68
  WS02006110WS02006113 CONDUIT    551.01     0  04:54      1.30    0.50    0.79
  WS02006109WS02006110 CONDUIT    550.73     0  04:54      1.10    1.06    1.00
  WS02004411WS02004412 CONDUIT    540.95     0  05:05      0.93    0.77    0.70
  WS02004401WS02004402 CONDUIT    546.58     0  05:03      1.00    0.66    0.87
  WS02004413WS02003067 CONDUIT    540.04     0  05:06      1.11    0.23    0.59
  WS02004412WS02004413 CONDUIT    540.32     0  05:05      0.82    0.36    0.78
  WS02004410WS02004411 CONDUIT    541.73     0  05:05      0.94    0.74    0.69
  WS02004409WS02004410 CONDUIT    543.12     0  05:04      1.00    0.70    0.68
  WS02004407WS02004409 CONDUIT    545.09     0  05:04      1.54    0.19    0.48
  WS02004406WS02004407 CONDUIT    545.39     0  05:04      1.05    0.24    0.63
  WS02004405WS02004406 CONDUIT    546.26     0  05:04      1.10    1.08    0.96
  WS02004404WS02004405 CONDUIT    546.35     0  05:04      1.15    5.35    0.96
  WS02004403WS02004404 CONDUIT    546.12     0  05:03      0.98    0.39    0.93
  WS02004402WS02004403 CONDUIT    546.10     0  05:03      1.02    0.78    0.89
  WS02004139WS02001211 CONDUIT    381.93     0  05:38      0.90    0.48    0.60
  WS02004138WS02004139 CONDUIT    395.52     0  00:00      3.64    0.08    0.44
  WS02003067WS02003066 CONDUIT    540.22     0  05:06      1.21    0.17    0.42
  WS02001213WS02003059 CONDUIT    395.57     0  05:40      0.89    0.65    0.77
  WS02001212WS02001213 CONDUIT    392.77     0  05:38      1.32    0.61    0.47
  WS02001211WS02001212 CONDUIT    391.11     0  05:38      0.78    0.30    0.65
  WS02003072WS02003073 CONDUIT    935.84     0  05:09      1.72    2.02    0.48
  WS02003069WS02003072 CONDUIT    935.79     0  05:08      1.62    0.45    0.51
  WS02003060WS02003069 CONDUIT    935.52     0  05:08      1.86    0.37    0.46
  WS02003059WS02003060 CONDUIT    399.51     0  05:39      0.95    0.26    0.66
  HS02004901HS02004770 CONDUIT     12.65     0  02:09      0.05    0.05    0.34
  HS02004876HS02004881 CONDUIT     43.58     0  02:12      0.66    0.46    0.09
  HS02004870HS02004876 CONDUIT     34.65     0  02:13      0.46    0.02    0.11
  HS02004842HS02004848 CONDUIT      6.31     0  02:22      0.03    0.00    0.28
  HS02004837HS02004842 CONDUIT      6.58     0  02:23      0.42    0.00    0.30
  HS02004830HS02004837 CONDUIT     27.64     0  02:12      0.47    0.03    0.08
  HS02004824HS02004830 CONDUIT     27.78     0  02:13      0.51    0.04    0.08
  HS02004817HS02004824 CONDUIT     45.98     0  02:15      0.17    0.02    0.42
  HS02004770HS02004777 CONDUIT     64.76     0  02:09      0.26    0.12    0.36
  HS02004799HS02004480 CONDUIT    159.97     0  02:11      0.66    0.20    0.35
  HS02004792HS02004799 CONDUIT    146.17     0  02:10      0.75    0.09    0.28
  HS02004788HS02004792 CONDUIT     84.99     0  02:11      0.90    0.06    0.14
  HS02004785HS02004788 CONDUIT     64.30     0  02:11      0.57    0.48    0.16
  HS02004777HS02004785 CONDUIT     64.25     0  02:10      0.31    0.08    0.29
  HS02004480HS02004478 CONDUIT    188.92     0  02:12      1.05    0.80    0.26
  HS02004479HS02004480 CONDUIT     29.68     0  02:13      0.16    0.03    0.34
  HS02004862HS02004870 CONDUIT     25.46     0  02:13      0.51    0.03    0.07
  HS02004848HS02004852 CONDUIT     10.62     0  02:12      0.34    0.01    0.04
  HS02004856HS02004862 CONDUIT     17.39     0  02:13      0.38    0.02    0.07
  HS02004852HS02004856 CONDUIT     10.56     0  02:14      0.15    0.01    0.10
  HS02004802HS02004478 CONDUIT     64.41     0  02:16      0.33    0.06    0.28
  HS02004478WS02006287 CONDUIT    251.46     0  02:12      1.43    0.07    0.20
  HS02004817HS02004807 CONDUIT     47.27     0  02:16      0.13    0.03    0.54
  HS02004807HS02004802 CONDUIT     63.87     0  02:15      0.28    0.12    0.33
  YS02001759YS02001757 CONDUIT    234.47     0  02:35      0.30    0.17    1.00
  YS02001762YS02001759 CONDUIT    128.13     0  03:07      0.17    0.15    1.00
  YS02001765YS02001762 CONDUIT    124.57     0  03:07      0.24    0.12    1.00
  YS02001770YS02001767 CONDUIT    128.05     0  02:32      0.30    0.51    1.00
  YS02001774YS02001770 CONDUIT     44.11     0  02:09      0.13    0.03    1.00
  YS02001779YS02001774 CONDUIT     31.28     0  02:32      0.07    0.02    1.00
  YS02001649YS02001757 CONDUIT    360.24     0  02:39      0.46    0.22    1.00
  YS02001767YS02001765 CONDUIT    123.18     0  03:07      0.27    0.15    1.00
  YS02006561YS02001783 CONDUIT    390.76     0  02:38      1.89    0.20    0.58
  YS02001783YS02001784 CONDUIT    433.59     0  02:31      1.34    0.60    0.87
  YS02001784YS02001785 CONDUIT    433.50     0  02:31      1.47    1.01    0.93
  YS02001788YS02001790 CONDUIT    539.94     0  02:37      1.98    0.40    0.99
  YS02001790YS02001791 CONDUIT    589.25     0  02:37      2.36    0.64    1.00
  YS02001791YS02001793 CONDUIT    624.70     0  02:38      4.70    0.27    1.00
  YS02001910YS02001907 CONDUIT    121.48     0  03:01      0.49    0.07    0.79
  YS02001786YS02001788 CONDUIT    478.29     0  02:37      1.96    0.92    0.94
  YS02001915YS02001910 CONDUIT    121.27     0  03:00      0.45    0.06    0.58
  YS02001918YS02001915 CONDUIT     42.48     0  03:00      0.44    0.02    0.30
  YS02001923YS02001920 CONDUIT     37.29     0  03:01      0.49    0.02    0.15
  YS02001926YS02001923 CONDUIT     37.26     0  03:01      0.53    0.05    0.14
  YS02001929YS02001926 CONDUIT     37.23     0  03:01      0.56    0.02    0.14
  YS02001920YS02001918 CONDUIT     40.40     0  03:01      0.49    0.04    0.17
  YS02001629YS02163301 CONDUIT     84.06     0  02:34      0.11    0.10    1.00
  YS02001619YS02001622 CONDUIT     97.57     0  02:37      0.67    0.14    1.00
  YS02001622YS02001625 CONDUIT    130.20     0  03:19      0.27    0.07    1.00
  YS02001625YS02001629 CONDUIT    131.34     0  03:19      0.27    0.06    1.00
  YS02163301YS02001633 CONDUIT     81.04     0  02:37      0.10    0.08    1.00
  YS02163601YS02164001 CONDUIT    160.69     0  02:52      0.20    0.14    1.00
  YS02164001YS02001641 CONDUIT    160.86     0  02:38      0.20    0.22    1.00
  YS02001641YS02001644 CONDUIT    160.04     0  02:49      0.20    0.52    1.00
  YS02001647YS02001649 CONDUIT    270.58     0  02:39      0.35    0.14    1.00
  YS02006553YS02006556 CONDUIT    266.57     0  02:44      0.37    0.23    0.87
  YS02006556YS02006558 CONDUIT    266.92     0  02:43      0.36    0.21    0.90
  YSB6556YSB1171       CONDUIT     16.11     0  02:14      0.07    0.02    0.61
  YS02001907YS02006553 CONDUIT    266.45     0  02:44      0.30    0.31    0.99
  YS02006558YS02006561 CONDUIT    405.26     0  02:39      2.54    0.90    0.56
  YS02001633YS02163601 CONDUIT    162.05     0  02:39      0.21    0.17    1.00
  YS02001644YS02001647 CONDUIT    245.04     0  02:48      0.31    0.14    1.00
  YS02001745YS02001748 CONDUIT    157.39     0  03:09      1.47    0.06    0.92
  YS02001748YS02001751 CONDUIT    202.78     0  03:08      1.14    0.10    1.00
  YS02001751YS02001754 CONDUIT    114.86     0  03:13      0.95    0.06    1.00
  YS02001754YS02001757 CONDUIT    116.66     0  03:13      0.33    0.05    1.00
  YS02001882YS02001884 CONDUIT      4.39     0  02:04      0.07    0.01    0.52
  YS02001884YS02001887 CONDUIT     13.16     0  02:05      0.05    0.02    0.61
  YS02001890YS02001895 CONDUIT    149.08     0  02:33      0.32    0.07    0.58
  YS02001895YS02001898 CONDUIT    148.84     0  02:36      0.45    0.26    0.44
  YS02001898YS02001901 CONDUIT    148.94     0  02:36      0.36    0.10    0.52
  YS02001901YS02001904 CONDUIT    149.17     0  02:37      0.32    0.23    0.57
  YS02001904YS02001907 CONDUIT    149.52     0  02:36      0.24    0.05    0.73
  YS02001887YS02001890 CONDUIT    148.80     0  02:33      0.27    0.25    0.66
  YS02001652YS02001649 CONDUIT    128.94     0  02:47      0.32    0.06    1.00
  YS02001655YS02001652 CONDUIT    134.94     0  02:38      0.98    0.07    1.00
  YS02001658YS02001655 CONDUIT    213.75     0  03:12      1.32    0.09    1.00
  YS02001661YS02001658 CONDUIT    176.85     0  03:14      1.53    0.07    0.95
  YS02001664YS02001661 CONDUIT    265.14     0  04:26      1.22    0.08    0.69
  YSB1154YSB6556       CONDUIT     15.82     0  02:11      0.19    0.03    0.50
  YSB1174YSB1171       CONDUIT     14.13     0  02:08      0.06    0.02    0.61
  YSB1171HS02004479    CONDUIT     29.41     0  02:13      0.54    0.02    0.48
  HS02004881HS02006253 CONDUIT     48.67     0  02:12      1.81    0.01    0.50
  YS02001793JiankangQianchi CONDUIT    666.84     0  02:41     14.24    0.05    1.00
  YS02001757CaochengTiaoxuchi CONDUIT    645.81     0  02:45      1.26    0.28    1.00
  WSF200WS02003060     CONDUIT    540.66     0  05:06      2.02    0.12    0.34
  1                    CONDUIT    937.79     0  05:10      3.27    0.33    0.39
  CC-Pump-1            PUMP       200.00     0  04:10              1.00
  CC-Pump-2            PUMP       200.00     0  04:50              1.00
  JK-Pump-1            PUMP       300.00     0  00:00              1.00
  JK-Pump-2            PUMP       683.00     0  02:40              1.00
  XR-Pump-1            PUMP        95.00     0  00:00              1.00
  XR-Pump-2            PUMP        95.00     0  00:00              1.00
  XR-Pump-3            PUMP        95.00     0  00:00              1.00
  XR-Pump-4            PUMP        95.00     0  00:00              1.00
  
  
  ***************************
  Flow Classification Summary
  ***************************
  
  -------------------------------------------------------------------------------------
                      Adjusted    ---------- Fraction of Time in Flow Class ---------- 
                       /Actual         Up    Down  Sub   Sup   Up    Down  Norm  Inlet 
  Conduit               Length    Dry  Dry   Dry   Crit  Crit  Crit  Crit  Ltd   Ctrl  
  -------------------------------------------------------------------------------------
  WS02003066WSF200        1.00   0.01  0.02  0.00  0.00  0.97  0.00  0.00  0.81  0.00
  WS02006287WS02006284    1.00   0.04  0.02  0.00  0.79  0.15  0.00  0.00  0.77  0.00
  WS02006284WS02006280    1.00   0.05  0.00  0.00  0.00  0.00  0.00  0.95  0.00  0.00
  WS02006280WS02006229    1.00   0.05  0.00  0.00  0.00  0.00  0.00  0.95  0.00  0.00
  WS02006229WS02006228    1.00   0.00  0.00  0.00  0.99  0.00  0.00  0.01  0.00  0.00
  WS02006256WS02006235    1.00   0.00  0.00  0.00  1.00  0.00  0.00  0.00  0.00  0.00
  WS02006253WS02006251    1.00   0.02  0.02  0.00  0.96  0.00  0.00  0.00  0.00  0.00
  WS02006252WS02006251    1.00   0.26  0.00  0.00  0.02  0.00  0.72  0.00  0.00  0.00
  WS02006251WS02006249    1.00   0.00  0.00  0.00  1.00  0.00  0.00  0.00  0.49  0.00
  WS02006249WS02006248    1.00   0.00  0.01  0.00  0.81  0.00  0.18  0.00  0.00  0.00
  WS02006248WS02006247    1.00   0.01  0.00  0.00  0.99  0.00  0.00  0.00  0.32  0.00
  WS02006247WS02006245    1.00   0.01  0.00  0.00  0.98  0.00  0.00  0.02  0.00  0.00
  WS02006245WS02006243    1.00   0.00  0.00  0.00  0.91  0.00  0.00  0.09  0.00  0.00
  WS02006243WS02006242    1.00   0.00  0.00  0.00  1.00  0.00  0.00  0.00  0.40  0.00
  WS02006242WS02006240    1.00   0.00  0.00  0.00  1.00  0.00  0.00  0.00  0.00  0.00
  WS02006240WS02006239    1.00   0.00  0.00  0.00  0.92  0.00  0.00  0.07  0.01  0.00
  WS02006239WS02006238    1.00   0.00  0.00  0.00  1.00  0.00  0.00  0.00  0.19  0.00
  WS02006238WS02006235    1.00   0.00  0.00  0.00  1.00  0.00  0.00  0.00  0.00  0.00
  WS02006235WS02006234    1.00   0.00  0.00  0.00  0.94  0.00  0.06  0.00  0.00  0.00
  WS02006234WS02006232    1.00   0.00  0.00  0.00  1.00  0.00  0.00  0.00  0.15  0.00
  WS02006232WS02006231    1.00   0.00  0.00  0.00  1.00  0.00  0.00  0.00  0.00  0.00
  WS02006231WS02006230    1.00   0.00  0.00  0.00  0.49  0.00  0.51  0.00  0.00  0.00
  WS02006230WS02006229    1.00   0.00  0.00  0.00  0.99  0.00  0.00  0.01  0.00  0.00
  WS02006228WS02006109    1.00   0.00  0.00  0.00  1.00  0.00  0.00  0.00  0.01  0.00
  WS02006116WS02004401    1.00   0.01  0.00  0.00  0.99  0.00  0.00  0.00  0.00  0.00
  WS02006115WS02006116    1.00   0.01  0.00  0.00  0.99  0.00  0.00  0.00  0.00  0.00
  WS02006113WS02006111    1.00   0.01  0.00  0.00  0.00  0.99  0.00  0.00  0.24  0.00
  WS02006112WS02006115    1.00   0.01  0.00  0.00  0.99  0.00  0.00  0.00  0.00  0.00
  WS02006111WS02006112    1.00   0.01  0.00  0.00  0.99  0.00  0.00  0.00  0.98  0.00
  WS02006110WS02006113    1.00   0.00  0.00  0.00  0.99  0.00  0.00  0.00  0.00  0.00
  WS02006109WS02006110    1.00   0.00  0.00  0.00  0.99  0.00  0.00  0.00  0.00  0.00
  WS02004411WS02004412    1.00   0.02  0.00  0.00  0.98  0.00  0.00  0.00  0.00  0.00
  WS02004401WS02004402    1.00   0.01  0.00  0.00  0.99  0.00  0.00  0.00  0.00  0.00
  WS02004413WS02003067    1.00   0.02  0.01  0.00  0.00  0.00  0.97  0.00  0.00  0.00
  WS02004412WS02004413    1.00   0.02  0.00  0.00  0.98  0.00  0.00  0.00  0.01  0.00
  WS02004410WS02004411    1.00   0.02  0.00  0.00  0.98  0.00  0.00  0.00  0.00  0.00
  WS02004409WS02004410    1.00   0.02  0.00  0.00  0.98  0.00  0.00  0.00  0.02  0.00
  WS02004407WS02004409    1.00   0.02  0.00  0.00  0.98  0.00  0.00  0.00  0.95  0.00
  WS02004406WS02004407    1.00   0.00  0.02  0.00  0.98  0.00  0.00  0.00  0.00  0.00
  WS02004405WS02004406    1.00   0.00  0.00  0.00  1.00  0.00  0.00  0.00  0.00  0.00
  WS02004404WS02004405    1.00   0.00  0.00  0.00  1.00  0.00  0.00  0.00  0.00  0.00
  WS02004403WS02004404    1.00   0.00  0.01  0.00  0.99  0.00  0.00  0.00  0.00  0.00
  WS02004402WS02004403    1.00   0.01  0.00  0.00  0.99  0.00  0.00  0.00  0.00  0.00
  WS02004139WS02001211    1.00   0.00  0.00  0.00  1.00  0.00  0.00  0.00  0.00  0.00
  WS02004138WS02004139    1.00   0.00  0.01  0.00  0.98  0.00  0.00  0.00  1.00  0.00
  WS02003067WS02003066    1.00   0.03  0.00  0.00  0.97  0.00  0.00  0.00  0.00  0.00
  WS02001213WS02003059    1.00   0.00  0.00  0.00  1.00  0.00  0.00  0.00  0.00  0.00
  WS02001212WS02001213    1.00   0.00  0.00  0.00  0.73  0.00  0.27  0.00  0.00  0.00
  WS02001211WS02001212    1.00   0.00  0.00  0.00  1.00  0.00  0.00  0.00  0.00  0.00
  WS02003072WS02003073    1.00   0.00  0.00  0.00  0.00  0.00  0.00  1.00  0.00  0.00
  WS02003069WS02003072    1.00   0.00  0.00  0.00  1.00  0.00  0.00  0.00  0.30  0.00
  WS02003060WS02003069    1.00   0.00  0.00  0.00  0.97  0.03  0.00  0.00  0.22  0.00
  WS02003059WS02003060    1.00   0.00  0.00  0.00  1.00  0.00  0.00  0.00  0.01  0.00
  HS02004901HS02004770    1.00   0.04  0.00  0.00  0.95  0.00  0.00  0.00  0.02  0.00
  HS02004876HS02004881    1.00   0.01  0.00  0.00  0.99  0.00  0.00  0.00  0.00  0.00
  HS02004870HS02004876    1.00   0.00  0.00  0.00  0.99  0.00  0.00  0.00  0.95  0.00
  HS02004842HS02004848    1.00   0.00  0.05  0.00  0.95  0.00  0.00  0.00  0.66  0.00
  HS02004837HS02004842    1.00   0.00  0.00  0.00  1.00  0.00  0.00  0.00  0.11  0.00
  HS02004830HS02004837    1.00   0.00  0.00  0.00  1.00  0.00  0.00  0.00  0.99  0.00
  HS02004824HS02004830    1.00   0.00  0.00  0.00  1.00  0.00  0.00  0.00  0.00  0.00
  HS02004817HS02004824    1.00   0.00  0.00  0.00  1.00  0.00  0.00  0.00  1.00  0.00
  HS02004770HS02004777    1.00   0.00  0.04  0.00  0.95  0.00  0.00  0.00  0.06  0.00
  HS02004799HS02004480    1.00   0.00  0.02  0.00  0.94  0.00  0.05  0.00  0.00  0.00
  HS02004792HS02004799    1.00   0.00  0.00  0.00  0.99  0.01  0.00  0.00  0.98  0.00
  HS02004788HS02004792    1.00   0.00  0.00  0.00  1.00  0.00  0.00  0.00  0.98  0.00
  HS02004785HS02004788    1.00   0.00  0.00  0.00  1.00  0.00  0.00  0.00  0.00  0.00
  HS02004777HS02004785    1.00   0.00  0.00  0.00  1.00  0.00  0.00  0.00  0.18  0.00
  HS02004480HS02004478    1.00   0.05  0.00  0.00  0.80  0.00  0.00  0.15  0.00  0.00
  HS02004479HS02004480    1.00   0.02  0.00  0.00  0.98  0.00  0.00  0.00  0.15  0.00
  HS02004862HS02004870    1.00   0.00  0.00  0.00  1.00  0.00  0.00  0.00  0.05  0.00
  HS02004848HS02004852    1.00   0.05  0.00  0.00  0.95  0.00  0.00  0.00  0.72  0.00
  HS02004856HS02004862    1.00   0.00  0.07  0.00  0.93  0.00  0.00  0.00  0.76  0.00
  HS02004852HS02004856    1.00   0.04  0.01  0.00  0.95  0.00  0.00  0.00  0.83  0.00
  HS02004802HS02004478    1.00   0.05  0.01  0.00  0.95  0.00  0.00  0.00  0.01  0.00
  HS02004478WS02006287    1.00   0.06  0.00  0.00  0.89  0.05  0.00  0.00  0.76  0.00
  HS02004817HS02004807    1.00   0.00  0.05  0.00  0.95  0.00  0.00  0.00  0.00  0.00
  HS02004807HS02004802    1.00   0.05  0.00  0.00  0.95  0.00  0.00  0.00  0.01  0.00
  YS02001759YS02001757    1.00   0.00  0.00  0.00  1.00  0.00  0.00  0.00  0.18  0.00
  YS02001762YS02001759    1.00   0.00  0.00  0.00  1.00  0.00  0.00  0.00  0.04  0.00
  YS02001765YS02001762    1.00   0.00  0.00  0.00  1.00  0.00  0.00  0.00  0.20  0.00
  YS02001770YS02001767    1.00   0.00  0.00  0.00  1.00  0.00  0.00  0.00  0.00  0.00
  YS02001774YS02001770    1.00   0.00  0.05  0.00  0.95  0.00  0.00  0.00  0.05  0.00
  YS02001779YS02001774    1.00   0.00  0.00  0.00  1.00  0.00  0.00  0.00  0.25  0.00
  YS02001649YS02001757    1.00   0.00  0.00  0.00  1.00  0.00  0.00  0.00  0.18  0.00
  YS02001767YS02001765    1.00   0.00  0.00  0.00  1.00  0.00  0.00  0.00  0.01  0.00
  YS02006561YS02001783    1.00   0.08  0.00  0.00  0.05  0.88  0.00  0.00  0.70  0.00
  YS02001783YS02001784    1.00   0.00  0.08  0.00  0.92  0.00  0.00  0.00  0.00  0.00
  YS02001784YS02001785    1.00   0.00  0.00  0.00  1.00  0.00  0.00  0.00  0.24  0.00
  YS02001788YS02001790    1.00   0.00  0.00  0.00  0.16  0.84  0.00  0.00  0.70  0.00
  YS02001790YS02001791    1.00   0.00  0.00  0.00  0.09  0.91  0.00  0.00  0.49  0.00
  YS02001791YS02001793    1.00   0.00  0.00  0.00  0.13  0.87  0.00  0.00  0.04  0.00
  YS02001910YS02001907    1.00   0.00  0.00  0.00  0.99  0.00  0.00  0.01  0.13  0.00
  YS02001786YS02001788    1.00   0.00  0.00  0.00  0.14  0.86  0.00  0.00  0.00  0.00
  YS02001915YS02001910    1.00   0.00  0.00  0.00  0.99  0.01  0.00  0.00  0.22  0.00
  YS02001918YS02001915    1.00   0.00  0.00  0.00  0.99  0.01  0.00  0.00  0.73  0.00
  YS02001923YS02001920    1.00   0.00  0.00  0.00  1.00  0.00  0.00  0.00  1.00  0.00
  YS02001926YS02001923    1.00   0.00  0.03  0.00  0.00  0.00  0.97  0.00  0.00  0.00
  YS02001929YS02001926    1.00   0.00  0.04  0.00  0.96  0.00  0.00  0.00  0.86  0.00
  YS02001920YS02001918    1.00   0.00  0.00  0.00  1.00  0.00  0.00  0.00  0.00  0.00
  YS02001629YS02163301    1.00   0.06  0.01  0.00  0.93  0.00  0.00  0.00  0.00  0.00
  YS02001619YS02001622    1.00   0.04  0.00  0.00  0.96  0.00  0.00  0.00  0.00  0.00
  YS02001622YS02001625    1.00   0.05  0.00  0.00  0.95  0.00  0.00  0.00  0.11  0.00
  YS02001625YS02001629    1.00   0.05  0.04  0.00  0.90  0.00  0.02  0.00  0.00  0.00
  YS02163301YS02001633    1.00   0.00  0.06  0.00  0.94  0.00  0.00  0.00  0.00  0.00
  YS02163601YS02164001    1.00   0.00  0.03  0.00  0.97  0.00  0.00  0.00  0.00  0.00
  YS02164001YS02001641    1.00   0.00  0.03  0.00  0.97  0.00  0.00  0.00  0.07  0.00
  YS02001641YS02001644    1.00   0.00  0.00  0.00  1.00  0.00  0.00  0.00  0.00  0.00
  YS02001647YS02001649    1.00   0.00  0.08  0.00  0.92  0.00  0.00  0.00  0.01  0.00
  YS02006553YS02006556    1.00   0.01  0.00  0.00  0.99  0.00  0.00  0.00  0.03  0.00
  YS02006556YS02006558    1.00   0.00  0.00  0.00  1.00  0.00  0.00  0.00  0.00  0.00
  YSB6556YSB1171          1.00   0.02  0.02  0.00  0.96  0.00  0.00  0.00  0.00  0.00
  YS02001907YS02006553    1.00   0.00  0.01  0.00  0.99  0.00  0.00  0.00  0.00  0.00
  YS02006558YS02006561    1.00   0.08  0.00  0.00  0.00  0.92  0.00  0.00  0.71  0.00
  YS02001633YS02163601    1.00   0.00  0.00  0.00  1.00  0.00  0.00  0.00  0.19  0.00
  YS02001644YS02001647    1.00   0.00  0.08  0.00  0.92  0.00  0.00  0.00  0.00  0.00
  YS02001745YS02001748    1.00   0.00  0.00  0.00  0.88  0.01  0.00  0.11  0.09  0.00
  YS02001748YS02001751    1.00   0.00  0.00  0.00  0.96  0.04  0.00  0.00  0.21  0.00
  YS02001751YS02001754    1.00   0.00  0.00  0.00  0.91  0.00  0.00  0.09  0.02  0.00
  YS02001754YS02001757    1.00   0.00  0.00  0.00  1.00  0.00  0.00  0.00  0.25  0.00
  YS02001882YS02001884    1.00   0.06  0.00  0.00  0.93  0.00  0.00  0.00  0.00  0.00
  YS02001884YS02001887    1.00   0.02  0.02  0.00  0.96  0.00  0.00  0.00  0.00  0.00
  YS02001890YS02001895    1.00   0.00  0.07  0.00  0.93  0.00  0.00  0.00  0.00  0.00
  YS02001895YS02001898    1.00   0.07  0.00  0.00  0.92  0.00  0.01  0.00  0.00  0.00
  YS02001898YS02001901    1.00   0.07  0.00  0.00  0.93  0.00  0.00  0.00  0.02  0.00
  YS02001901YS02001904    1.00   0.07  0.00  0.00  0.93  0.00  0.00  0.00  0.00  0.00
  YS02001904YS02001907    1.00   0.00  0.06  0.00  0.93  0.00  0.00  0.00  0.00  0.00
  YS02001887YS02001890    1.00   0.00  0.00  0.00  0.99  0.00  0.01  0.00  0.00  0.00
  YS02001652YS02001649    1.00   0.00  0.00  0.00  1.00  0.00  0.00  0.00  0.24  0.00
  YS02001655YS02001652    1.00   0.00  0.00  0.00  0.91  0.00  0.00  0.09  0.02  0.00
  YS02001658YS02001655    1.00   0.00  0.06  0.00  0.90  0.04  0.00  0.00  0.09  0.00
  YS02001661YS02001658    1.00   0.06  0.00  0.00  0.88  0.06  0.00  0.00  0.10  0.00
  YS02001664YS02001661    1.00   0.04  0.00  0.00  0.86  0.09  0.00  0.00  0.34  0.00
  YSB1154YSB6556          1.00   0.04  0.00  0.00  0.96  0.00  0.00  0.00  0.02  0.00
  YSB1174YSB1171          1.00   0.02  0.01  0.00  0.97  0.00  0.00  0.00  0.00  0.00
  YSB1171HS02004479       1.00   0.02  0.00  0.00  0.98  0.00  0.00  0.00  0.13  0.00
  HS02004881HS02006253    1.00   0.02  0.00  0.00  0.62  0.01  0.00  0.36  0.35  0.00
  YS02001793JiankangQianchi    1.00   0.00  0.00  0.00  0.64  0.36  0.00  0.00  0.58  0.00
  YS02001757CaochengTiaoxuchi    1.00   0.00  0.10  0.00  0.90  0.00  0.00  0.00  0.00  0.00
  WSF200WS02003060        1.00   0.00  0.01  0.00  0.81  0.18  0.00  0.00  0.63  0.00
  1                       1.00   0.00  0.00  0.00  0.00  1.00  0.00  0.00  0.44  0.00
  
  
  *************************
  Conduit Surcharge Summary
  *************************
  
  ----------------------------------------------------------------------------
                                                           Hours        Hours 
                         --------- Hours Full --------   Above Full   Capacity
  Conduit                Both Ends  Upstream  Dnstream   Normal Flow   Limited
  ----------------------------------------------------------------------------
  WS02006229WS02006228        1.17      1.42      1.17      2.46         1.17
  WS02006256WS02006235        4.80      4.81      6.36      2.91         0.01
  WS02006253WS02006251        0.68      0.68      0.75      0.01         0.01
  WS02006252WS02006251        0.92      0.92      1.52      1.35         0.01
  WS02006251WS02006249        0.68      0.70      0.72      0.72         0.36
  WS02006249WS02006248        0.65      0.65      0.72      2.43         0.01
  WS02006248WS02006247        0.70      0.70      0.79      0.01         0.01
  WS02006247WS02006245        0.74      0.82      0.74      2.76         0.74
  WS02006245WS02006243        0.75      0.77      0.82      0.44         0.22
  WS02006243WS02006242        0.93      0.93      1.27      0.01         0.01
  WS02006242WS02006240        1.02      1.02      1.42      1.48         0.01
  WS02006240WS02006239        1.03      1.07      1.08      0.69         0.37
  WS02006239WS02006238        1.24      1.31      1.30      0.73         0.48
  WS02006238WS02006235        1.23      1.23      1.50      0.01         0.01
  WS02006235WS02006234        0.93      0.93      1.17      4.66         0.01
  WS02006234WS02006232        1.01      1.01      1.51      0.30         0.31
  WS02006232WS02006231        0.42      0.42      1.51      0.35         0.01
  WS02006231WS02006230        0.24      0.24      0.46      4.98         0.01
  WS02006230WS02006229        2.20      2.35      2.20      5.67         2.20
  WS02006228WS02006109        1.22      1.88      1.22      3.82         1.22
  WS02006112WS02006115        0.01      0.01      0.32      0.01         0.01
  WS02006111WS02006112        0.01      0.01      2.82      0.01         0.01
  WS02006110WS02006113        0.01      0.01      1.67      0.01         0.01
  WS02006109WS02006110        0.28      0.28      1.88      0.28         0.01
  WS02004405WS02004406        0.01      0.01      0.01      0.26         0.01
  WS02004404WS02004405        0.01      0.01      0.01      5.63         0.01
  WS02003072WS02003073        0.01      0.01      0.01      3.99         0.01
  YS02001759YS02001757        5.42      5.42      5.51      0.01         0.01
  YS02001762YS02001759        5.39      5.39      5.42      0.01         0.01
  YS02001765YS02001762        5.34      5.34      5.39      0.01         0.01
  YS02001770YS02001767        5.29      5.29      5.29      0.01         0.32
  YS02001774YS02001770        5.23      5.23      5.38      0.01         0.01
  YS02001779YS02001774        4.70      4.70      5.38      0.01         0.01
  YS02001649YS02001757        5.40      5.40      5.51      0.01         0.01
  YS02001767YS02001765        5.29      5.29      5.34      0.01         0.01
  YS02001784YS02001785        0.01      0.01      0.01      0.01         0.01
  YS02001788YS02001790        0.01      0.01      0.51      0.01         0.01
  YS02001790YS02001791        0.51      0.51      0.63      0.01         0.01
  YS02001791YS02001793        0.63      0.63      0.93      0.01         0.01
  YS02001629YS02163301        5.21      5.21      5.27      0.01         0.01
  YS02001619YS02001622        4.31      4.31      4.34      0.01         0.01
  YS02001622YS02001625        4.34      4.34      4.98      0.01         0.01
  YS02001625YS02001629        4.30      4.30      4.98      0.01         0.01
  YS02163301YS02001633        5.27      5.27      5.35      0.01         0.01
  YS02163601YS02164001        5.34      5.34      5.40      0.01         0.01
  YS02164001YS02001641        5.34      5.34      5.36      0.01         0.01
  YS02001641YS02001644        5.36      5.36      5.37      0.01         0.37
  YS02001647YS02001649        4.93      4.93      5.40      0.01         0.01
  YS02001907YS02006553        0.01      0.01      0.27      0.01         0.01
  YS02001633YS02163601        5.33      5.33      5.40      0.01         0.01
  YS02001644YS02001647        4.93      4.93      5.37      0.01         0.01
  YS02001745YS02001748        0.01      0.01      3.62      0.01         0.01
  YS02001748YS02001751        4.00      4.00      4.37      0.01         0.01
  YS02001751YS02001754        4.37      4.37      4.78      0.01         0.01
  YS02001754YS02001757        4.92      4.92      5.51      0.01         0.01
  YS02001652YS02001649        4.97      4.97      5.40      0.01         0.01
  YS02001655YS02001652        4.43      4.43      4.88      0.01         0.01
  YS02001658YS02001655        3.70      3.70      4.43      0.01         0.01
  YS02001661YS02001658        0.01      0.01      3.70      0.01         0.01
  HS02004881HS02006253        0.01      0.01      0.21      0.01         0.01
  YS02001793JiankangQianchi        0.85      0.85      3.23      0.01         0.01
  YS02001757CaochengTiaoxuchi        4.10      4.10      5.51      0.01         0.01
  
  
  ***************
  Pumping Summary
  ***************
  
  ---------------------------------------------------------------------------------------------------------
                                                  Min       Avg       Max     Total     Power    % Time Off
                        Percent   Number of      Flow      Flow      Flow    Volume     Usage    Pump Curve
  Pump                 Utilized   Start-Ups       LPS       LPS       LPS  10^6 ltr     Kw-hr    Low   High
  ---------------------------------------------------------------------------------------------------------
  CC-Pump-1               42.54           4      0.00    159.81    200.00     1.860      2.28    0.0    0.0
  CC-Pump-2               29.77           5      0.00    108.96    200.00     1.020      1.44    0.0    0.0
  JK-Pump-1               44.67           7      0.00    137.26    300.00     1.877     33.94    0.0    0.0
  JK-Pump-2               34.03           5      0.00    228.92    683.00     2.503     43.04    0.0   96.5
  XR-Pump-1               91.49           2      0.00     87.66     95.00     2.223     44.17    0.0    0.0
  XR-Pump-2               85.11           5      0.00     85.66     95.00     1.995     39.52    0.0    0.0
  XR-Pump-3               76.59           6      0.00     82.40     95.00     1.767     34.28    0.0    0.0
  XR-Pump-4               76.59           6      0.00     82.40     95.00     1.767     34.28    0.0    0.0
  
  
  ***************************
  Link Pollutant Load Summary
  ***************************
  
  ------------------------------------------------------------------------------------------
                                 COD            SS            TN            TP         NH4-N
  Link                            kg            kg            kg            kg            kg
  ------------------------------------------------------------------------------------------
  WS02003066WSF200           361.269       613.378        13.186         1.313         7.386
  WS02006287WS02006284       121.496       210.925         6.534         0.743         3.880
  WS02006284WS02006280       121.920       211.609         6.574         0.748         3.904
  WS02006280WS02006229       121.904       211.579         6.573         0.748         3.904
  WS02006229WS02006228       370.607       628.595        12.883         1.255         7.146
  WS02006256WS02006235        75.378       125.125         2.341         0.215         1.275
  WS02006253WS02006251        21.597        38.718         0.606         0.052         0.318
  WS02006252WS02006251       173.459       289.208         3.870         0.277         1.900
  WS02006251WS02006249       187.248       314.971         4.301         0.317         2.133
  WS02006249WS02006248       183.728       309.065         4.222         0.311         2.094
  WS02006248WS02006247       183.365       308.495         4.212         0.310         2.089
  WS02006247WS02006245       182.668       307.352         4.195         0.309         2.081
  WS02006245WS02006243       181.862       306.070         4.170         0.307         2.067
  WS02006243WS02006242       182.599       307.396         4.195         0.309         2.081
  WS02006242WS02006240       185.199       311.804         4.275         0.317         2.125
  WS02006240WS02006239       188.123       316.697         4.369         0.326         2.176
  WS02006239WS02006238       191.687       322.458         4.505         0.339         2.254
  WS02006238WS02006235       193.615       325.487         4.578         0.347         2.295
  WS02006235WS02006234       253.081       424.250         6.419         0.515         3.297
  WS02006234WS02006232       252.372       423.058         6.411         0.515         3.295
  WS02006232WS02006231       251.458       421.548         6.384         0.513         3.280
  WS02006231WS02006230       250.479       419.960         6.357         0.511         3.266
  WS02006230WS02006229       250.088       419.369         6.361         0.512         3.270
  WS02006228WS02006109       369.719       627.143        12.866         1.254         7.138
  WS02006116WS02004401       373.508       633.536        13.503         1.339         7.548
  WS02006115WS02006116       374.833       635.704        13.539         1.342         7.567
  WS02006113WS02006111       375.211       635.817        13.583         1.346         7.594
  WS02006112WS02006115       376.361       638.227        13.596         1.348         7.599
  WS02006111WS02006112       374.653       634.900        13.567         1.345         7.586
  WS02006110WS02006113       376.024       637.155        13.615         1.350         7.612
  WS02006109WS02006110       377.435       639.474        13.672         1.355         7.645
  WS02004411WS02004412       364.697       619.047        13.312         1.326         7.456
  WS02004401WS02004402       372.102       631.216        13.453         1.334         7.520
  WS02004413WS02003067       361.910       614.411        13.205         1.315         7.396
  WS02004412WS02004413       363.457       617.008        13.271         1.322         7.433
  WS02004410WS02004411       365.715       620.713        13.344         1.329         7.474
  WS02004409WS02004410       366.781       622.469        13.380         1.332         7.493
  WS02004407WS02004409       367.613       623.819        13.402         1.334         7.505
  WS02004406WS02004407       367.766       624.044        13.399         1.333         7.502
  WS02004405WS02004406       369.356       626.666        13.462         1.340         7.537
  WS02004404WS02004405       370.212       628.054        13.460         1.338         7.533
  WS02004403WS02004404       369.798       627.427        13.376         1.327         7.478
  WS02004402WS02004403       370.920       629.281        13.417         1.331         7.501
  WS02004139WS02001211      1299.546      2084.827       121.180        15.076        75.525
  WS02004138WS02004139      1304.990      2093.573       121.676        15.138        75.833
  WS02003067WS02003066       361.470       613.711        13.194         1.314         7.390
  WS02001213WS02003059      1329.213      2132.231       124.040        15.434        77.314
  WS02001212WS02001213      1339.314      2148.418       125.018        15.557        77.925
  WS02001211WS02001212      1342.519      2153.554       125.324        15.595        78.116
  WS02003072WS02003073      1782.924      2893.342       146.349        17.892        90.412
  WS02003069WS02003072      1788.665      2902.587       146.854        17.955        90.726
  WS02003060WS02003069      1791.964      2907.909       147.107        17.985        90.881
  WS02003059WS02003060      1324.411      2124.538       123.521        15.368        76.987
  HS02004901HS02004770         3.214         5.886         0.062         0.005         0.029
  HS02004876HS02004881        12.504        23.096         0.352         0.030         0.184
  HS02004870HS02004876         9.617        17.662         0.305         0.027         0.163
  HS02004842HS02004848         1.729         3.060         0.038         0.002         0.017
  HS02004837HS02004842         6.353        10.423         0.506         0.061         0.311
  HS02004830HS02004837        50.132        82.064         4.262         0.525         2.643
  HS02004824HS02004830        50.882        83.265         4.334         0.534         2.688
  HS02004817HS02004824        57.704        95.802         4.503         0.546         2.774
  HS02004770HS02004777        12.346        22.784         0.266         0.017         0.121
  HS02004799HS02004480        50.779        89.385         2.106         0.222         1.196
  HS02004792HS02004799        47.100        82.160         2.086         0.225         1.195
  HS02004788HS02004792        30.319        52.634         1.617         0.181         0.950
  HS02004785HS02004788        13.842        25.189         0.417         0.037         0.216
  HS02004777HS02004785        13.319        24.345         0.370         0.031         0.187
  HS02004480HS02004478        61.382       109.504         2.240         0.229         1.251
  HS02004479HS02004480        14.974        27.088         0.550         0.059         0.315
  HS02004862HS02004870         7.193        12.920         0.256         0.025         0.140
  HS02004848HS02004852         2.132         3.819         0.046         0.003         0.021
  HS02004856HS02004862         4.107         7.644         0.085         0.005         0.039
  HS02004852HS02004856         2.129         3.812         0.046         0.003         0.021
  HS02004802HS02004478        60.415       101.913         4.321         0.517         2.645
  HS02004478WS02006287       121.674       211.219         6.549         0.745         3.889
  HS02004817HS02004807        56.333        93.609         4.373         0.530         2.693
  HS02004807HS02004802        61.113       103.026         4.388         0.526         2.687
  YS02001759YS02001757       121.972       205.279         2.783         0.199         1.393
  YS02001762YS02001759        64.894       110.098         1.650         0.124         0.846
  YS02001765YS02001762        64.345       109.063         1.663         0.126         0.856
  YS02001770YS02001767        61.831       104.939         1.365         0.087         0.667
  YS02001774YS02001770         4.171         7.101         0.100         0.007         0.050
  YS02001779YS02001774         2.941         4.911         0.133         0.014         0.077
  YS02001649YS02001757       180.271       293.729         3.974         0.291         1.920
  YS02001767YS02001765        64.319       108.947         1.677         0.128         0.865
  YS02006561YS02001783       257.311       430.111         7.115         0.612         3.775
  YS02001783YS02001784       257.244       430.016         7.111         0.612         3.773
  YS02001784YS02001785       264.634       441.860         7.825         0.701         4.219
  YS02001788YS02001790       265.328       442.994         7.899         0.711         4.266
  YS02001790YS02001791       266.403       444.731         8.001         0.723         4.329
  YS02001791YS02001793       266.369       444.680         7.997         0.723         4.327
  YS02001910YS02001907        90.086       147.987         3.553         0.345         2.005
  YS02001786YS02001788       264.874       442.255         7.854         0.705         4.237
  YS02001915YS02001910        89.978       147.765         3.508         0.339         1.975
  YS02001918YS02001915        47.633        75.451         2.549         0.286         1.516
  YS02001923YS02001920        27.619        43.432         0.608         0.043         0.302
  YS02001926YS02001923        27.250        42.837         0.569         0.038         0.277
  YS02001929YS02001926        26.974        42.385         0.537         0.034         0.257
  YS02001920YS02001918        47.557        75.339         2.526         0.283         1.501
  YS02001629YS02163301        31.005        50.730         0.698         0.043         0.323
  YS02001619YS02001622        34.147        55.573         0.772         0.048         0.355
  YS02001622YS02001625        33.221        54.193         0.748         0.046         0.345
  YS02001625YS02001629        32.146        52.601         0.722         0.045         0.333
  YS02163301YS02001633        31.216        51.110         0.700         0.044         0.325
  YS02163601YS02164001        87.543       142.107         1.937         0.139         0.939
  YS02164001YS02001641        87.254       141.645         1.919         0.137         0.928
  YS02001641YS02001644        87.864       142.666         1.921         0.136         0.928
  YS02001647YS02001649       139.528       225.927         2.917         0.206         1.399
  YS02006553YS02006556       187.326       312.091         5.521         0.497         2.985
  YS02006556YS02006558       187.295       312.029         5.488         0.492         2.963
  YSB6556YSB1171               7.723        14.112         0.217         0.021         0.119
  YS02001907YS02006553       187.281       312.033         5.519         0.497         2.984
  YS02006558YS02006561       257.315       430.107         7.114         0.612         3.774
  YS02001633YS02163601        88.154       143.012         1.919         0.135         0.924
  YS02001644YS02001647       140.366       227.174         2.936         0.207         1.408
  YS02001745YS02001748        48.170        80.391         1.086         0.066         0.528
  YS02001748YS02001751        48.516        81.011         1.167         0.078         0.581
  YS02001751YS02001754        47.993        80.163         1.210         0.085         0.612
  YS02001754YS02001757        48.960        81.712         1.381         0.108         0.722
  YS02001882YS02001884         0.659         1.052         0.019         0.002         0.010
  YS02001884YS02001887         2.440         4.033         0.062         0.005         0.033
  YS02001890YS02001895        98.226       165.516         1.987         0.153         0.990
  YS02001895YS02001898        98.090       165.322         1.981         0.152         0.987
  YS02001898YS02001901        97.975       165.161         1.978         0.152         0.985
  YS02001901YS02001904        98.038       165.296         1.999         0.155         0.999
  YS02001904YS02001907        98.833       166.611         2.095         0.167         1.059
  YS02001887YS02001890        99.076       166.831         2.051         0.161         1.029
  YS02001652YS02001649        42.596        70.667         1.086         0.086         0.532
  YS02001655YS02001652        43.488        72.053         1.111         0.088         0.544
  YS02001658YS02001655        42.600        70.585         0.947         0.066         0.437
  YS02001661YS02001658        42.880        70.932         0.930         0.062         0.423
  YS02001664YS02001661        46.440        76.446         1.013         0.068         0.461
  YSB1154YSB6556               7.215        13.304         0.155         0.013         0.080
  YSB1174YSB1171               5.355         9.933         0.150         0.015         0.082
  YSB1171HS02004479           14.871        26.932         0.539         0.057         0.308
  HS02004881HS02006253        14.067        26.108         0.378         0.031         0.196
  YS02001793JiankangQianchi       267.403       446.365         8.048         0.729         4.357
  YS02001757CaochengTiaoxuchi       345.344       572.176         7.789         0.559         3.829
  WSF200WS02003060           361.210       613.301        13.195         1.315         7.392
  1                         1788.075      2901.589       146.968        17.972        90.805
  CC-Pump-1                  112.478       187.677         2.505         0.180         1.230
  CC-Pump-2                   60.942       101.468         1.361         0.097         0.668
  JK-Pump-1                   64.033       106.443         1.950         0.177         1.058
  JK-Pump-2                  122.312       205.771         3.515         0.312         1.886
  XR-Pump-1                  385.997       619.166        36.048         4.486        22.471
  XR-Pump-2                  336.391       539.714        31.338         3.898        19.530
  XR-Pump-3                  293.471       470.827        27.347         3.402        17.043
  XR-Pump-4                  293.471       470.827        27.347         3.402        17.043
  

  Analysis begun on:  Sun Jul 11 00:04:33 2021
  Analysis ended on:  Sun Jul 11 00:04:36 2021
  Total elapsed time: 00:00:03