
  EPA STORM WATER MANAGEMENT MODEL - VERSION 5.1 (Build 5.3.0.dev0)
  --------------------------------------------------------------

  WARNING 04: minimum elevation drop used for Conduit WS02004404WS02004405
  WARNING 03: negative offset ignored for Link YS02001904YS02001907
  
  *********************************************************
  NOTE: The summary statistics displayed in this report are
  based on results found at every computational time step,  
  not just on results from each reporting time step.
  *********************************************************
  
  ****************
  Analysis Options
  ****************
  Flow Units ............... LPS
  Process Models:
    Rainfall/Runoff ........ YES
    RDII ................... NO
    Snowmelt ............... NO
    Groundwater ............ NO
    Flow Routing ........... YES
    Ponding Allowed ........ NO
    Water Quality .......... YES
  Infiltration Method ...... HORTON
  Flow Routing Method ...... DYNWAVE
  Surcharge Method ......... EXTRAN
  Starting Date ............ 08/28/2015 08:00:00
  Ending Date .............. 08/28/2015 15:50:00
  Antecedent Dry Days ...... 8.0
  Report Time Step ......... 00:01:00
  Wet Time Step ............ 00:01:00
  Dry Time Step ............ 00:01:00
  Routing Time Step ........ 5.00 sec
  Variable Time Step ....... YES
  Maximum Trials ........... 8
  Number of Threads ........ 4
  Head Tolerance ........... 0.001500 m
  
  
  **************************        Volume         Depth
  Runoff Quantity Continuity     hectare-m            mm
  **************************     ---------       -------
  Total Precipitation ......         1.890         4.138
  Evaporation Loss .........         0.000         0.000
  Infiltration Loss ........         0.446         0.976
  Surface Runoff ...........         1.019         2.231
  Final Storage ............         0.426         0.933
  Continuity Error (%) .....        -0.023
  
  
  **************************           COD            SS            TN            TP         NH4-N
  Runoff Quality Continuity             kg            kg            kg            kg            kg
  **************************    ----------    ----------    ----------    ----------    ----------
  Initial Buildup ..........     41378.656     70582.865      1804.177       168.684      1032.807
  Surface Buildup ..........        13.488        15.104         3.115         0.289         1.848
  Wet Deposition ...........         0.000         0.000         0.000         0.000         0.000
  Sweeping Removal .........         0.000         0.000         0.000         0.000         0.000
  Infiltration Loss ........        16.587        27.903         0.343         0.023         0.160
  BMP Removal ..............         0.000         0.000         0.000         0.000         0.000
  Surface Runoff ...........       507.499       831.095        10.606         0.673         4.983
  Remaining Buildup ........     40867.899     69738.717      1796.340       168.276      1029.511
  Continuity Error (%) .....         0.000         0.000         0.000         0.000         0.000
  
  
  **************************        Volume        Volume
  Flow Routing Continuity        hectare-m      10^6 ltr
  **************************     ---------     ---------
  Dry Weather Inflow .......         0.616         6.165
  Wet Weather Inflow .......         1.018        10.184
  Groundwater Inflow .......         0.000         0.000
  RDII Inflow ..............         0.000         0.000
  External Inflow ..........         0.102         1.024
  External Outflow .........         1.295        12.950
  Flooding Loss ............         0.148         1.485
  Evaporation Loss .........         0.000         0.000
  Exfiltration Loss ........         0.000         0.000
  Initial Stored Volume ....         0.076         0.761
  Final Stored Volume ......         0.465         4.654
  Continuity Error (%) .....        -5.275
  
  
  **************************           COD            SS            TN            TP         NH4-N
  Quality Routing Continuity            kg            kg            kg            kg            kg
  **************************    ----------    ----------    ----------    ----------    ----------
  Dry Weather Inflow .......      1541.201      2465.922       147.955        18.494        92.472
  Wet Weather Inflow .......       507.319       830.826        10.601         0.673         4.981
  Groundwater Inflow .......         0.000         0.000         0.000         0.000         0.000
  RDII Inflow ..............         0.000         0.000         0.000         0.000         0.000
  External Inflow ..........       183.418       293.469        17.608         2.201        11.005
  External Outflow .........      1735.165      2793.605       151.211        18.643        93.826
  Flooding Loss ............        77.002       126.852         2.431         0.225         1.327
  Exfiltration Loss ........         0.000         0.000         0.000         0.000         0.000
  Mass Reacted .............         0.000         0.000         0.000         0.000         0.000
  Initial Stored Mass ......         0.000         0.000         0.000         0.000         0.000
  Final Stored Mass ........       225.059       357.360         7.235         0.649         3.891
  Continuity Error (%) .....         8.724         8.701         8.678         8.671         8.679
  
  
  *************************
  Highest Continuity Errors
  *************************
  Node YS02001774 (39.46%)
  Node HS02004842 (29.91%)
  Node YS02001884 (24.96%)
  Node JK-storage (-20.10%)
  Node YSB1171 (7.69%)
  
  
  ***************************
  Time-Step Critical Elements
  ***************************
  Link WS02006252WS02006251 (48.12%)
  Link WS02006280WS02006229 (15.02%)
  Link YS02001793JiankangQianchi (11.20%)
  Link WS02006238WS02006235 (9.64%)
  Link YS02001791YS02001793 (2.80%)
  
  
  ********************************
  Highest Flow Instability Indexes
  ********************************
  Link WS02006113WS02006111 (53)
  Link YS02001767YS02001765 (12)
  Link YS02001765YS02001762 (12)
  Link YS02001652YS02001649 (12)
  Link YS02001762YS02001759 (12)
  
  
  *************************
  Routing Time Step Summary
  *************************
  Minimum Time Step           :     0.50 sec
  Average Time Step           :     1.89 sec
  Maximum Time Step           :     5.00 sec
  Percent in Steady State     :    -0.00
  Average Iterations per Step :     2.54
  Percent Not Converging      :     2.45
  
  
  ***************************
  Subcatchment Runoff Summary
  ***************************
  
  ------------------------------------------------------------------------------------------------------------------------------
                            Total      Total      Total      Total     Imperv       Perv      Total       Total     Peak  Runoff
                           Precip      Runon       Evap      Infil     Runoff     Runoff     Runoff      Runoff   Runoff   Coeff
  Subcatchment                 mm         mm         mm         mm         mm         mm         mm    10^6 ltr      LPS
  ------------------------------------------------------------------------------------------------------------------------------
  sub0                       4.14       0.00       0.00       0.29       3.80       0.00       3.80        0.00     1.17   0.919
  sub1                       4.14       0.00       0.00       0.46       3.60       0.00       3.60        0.02     6.51   0.869
  sub2                       4.14       0.00       0.00       1.53       2.53       0.00       2.53        0.02     5.78   0.611
  sub3                       4.14       0.00       0.00       1.53       2.50       0.00       2.50        0.06    11.88   0.603
  sub4                       4.14       0.00       0.00       0.46       3.46       0.00       3.46        0.07    13.28   0.837
  sub5                       4.14       0.00       0.00       0.29       3.76       0.00       3.76        0.04    11.57   0.908
  sub7                       4.14       0.00       0.00       0.37       3.71       0.00       3.71        0.01     4.01   0.895
  sub8                       4.14       0.00       0.00       0.37       3.70       0.00       3.70        0.02     7.14   0.893
  sub9                       4.14       0.00       0.00       0.37       3.69       0.00       3.69        0.02     5.30   0.893
  sub10                      4.14       0.00       0.00       0.33       3.72       0.00       3.72        0.04    11.52   0.900
  sub11                      4.14       0.00       0.00       0.33       3.74       0.00       3.74        0.04    13.39   0.904
  sub12                      4.14       0.00       0.00       0.54       3.55       0.00       3.55        0.03    11.02   0.859
  sub14                      4.14       0.00       0.00       0.37       3.69       0.00       3.69        0.04    10.36   0.892
  sub15                      4.14       0.00       0.00       1.24       2.84       0.00       2.84        0.05    14.09   0.686
  sub16                      4.14       0.00       0.00       1.37       2.73       0.00       2.73        0.03     9.78   0.661
  sub17                      4.14       0.00       0.00       1.32       2.77       0.00       2.77        0.02     7.94   0.670
  sub22                      4.14       0.00       0.00       1.78       2.32       0.00       2.32        0.15    45.73   0.560
  sub23                      4.14       0.00       0.00       1.53       2.56       0.00       2.56        0.12    38.83   0.620
  sub60                      4.14       0.00       0.00       0.50       2.44       0.00       2.44        0.74    64.07   0.589
  sub61                      4.14       0.00       0.00       0.70       2.63       0.00       2.63        0.81    81.53   0.634
  sub62                      4.14       0.00       0.00       0.33       2.81       0.00       2.81        0.86    82.97   0.679
  sub63                      4.14       0.00       0.00       1.20       2.34       0.00       2.34        0.71    76.55   0.566
  sub64                      4.14       0.00       0.00       0.62       2.33       0.00       2.33        0.71    60.80   0.562
  sub65                      4.14       0.00       0.00       0.54       2.36       0.00       2.36        0.72    61.64   0.569
  sub66                      4.14       0.00       0.00       1.20       2.04       0.00       2.04        0.62    55.96   0.492
  sub67                      4.14       0.00       0.00       0.33       3.11       0.00       3.11        0.96   107.98   0.751
  sub68                      4.14       0.00       0.00       0.58       2.80       0.00       2.80        0.86    90.49   0.676
  sub69                      4.14       0.00       0.00       0.62       3.04       0.00       3.04        0.71    91.29   0.734
  sub70                      4.14       3.10       0.00       2.46       3.69       0.00       3.69        0.84    71.64   0.509
  sub71                      4.14       0.00       0.00       0.33       2.68       0.00       2.68        0.63    57.61   0.647
  sub72                      4.14       0.00       0.00       0.29       1.86       0.00       1.86        0.38    26.96   0.449
  1                          4.14       3.59       0.00       1.30       3.72       0.41       4.13        0.97    66.58   0.534
  2                          4.14       0.00       0.00       2.88       0.92       0.12       1.04        0.41    55.33   0.250
  
  
  ****************************
  Subcatchment Washoff Summary
  ****************************
  
  ------------------------------------------------------------------------------------------
                                 COD            SS            TN            TP         NH4-N
  Subcatchment                    kg            kg            kg            kg            kg
  ------------------------------------------------------------------------------------------
  sub0                         0.531         0.962         0.009         0.001         0.004
  sub1                         2.134         3.892         0.041         0.003         0.019
  sub2                         1.216         2.132         0.028         0.002         0.013
  sub3                         2.902         5.005         0.066         0.004         0.030
  sub4                         4.609         8.294         0.097         0.005         0.046
  sub5                         4.873         8.775         0.086         0.006         0.041
  sub7                         1.153         2.154         0.022         0.001         0.011
  sub8                         1.751         3.330         0.036         0.002         0.017
  sub9                         1.471         2.760         0.029         0.002         0.014
  sub10                        4.085         7.463         0.075         0.005         0.036
  sub11                        4.110         7.634         0.078         0.005         0.037
  sub12                        3.445         6.308         0.062         0.005         0.030
  sub14                        3.104         5.768         0.060         0.004         0.029
  sub15                        3.587         6.340         0.072         0.005         0.033
  sub16                        2.307         4.094         0.045         0.003         0.021
  sub17                        2.098         3.686         0.040         0.003         0.018
  sub22                       10.568        18.294         0.210         0.015         0.096
  sub23                        6.639        11.952         0.153         0.010         0.069
  sub60                       32.508        52.686         0.718         0.040         0.342
  sub61                       41.673        67.391         0.831         0.053         0.398
  sub62                       44.136        72.706         0.942         0.055         0.449
  sub63                       31.594        50.578         0.711         0.047         0.321
  sub64                       37.826        58.954         0.746         0.051         0.352
  sub65                       38.795        60.731         0.772         0.052         0.365
  sub66                       23.410        36.988         0.547         0.033         0.251
  sub67                       66.493       108.837         1.231         0.086         0.591
  sub68                       47.348        77.593         0.981         0.061         0.464
  sub69                       45.187        75.395         0.899         0.059         0.425
  sub70                       65.948       109.823         1.440         0.094         0.660
  sub71                       29.269        48.582         0.672         0.036         0.320
  sub72                       17.739        27.076         0.361         0.023         0.173
  1                           30.890        51.852         0.704         0.046         0.317
  2                            5.233         8.275         0.181         0.011         0.075
  ------------------------------------------------------------------------------------------
  System                     618.633      1016.313        12.945         0.826         6.068
  
  
  ******************
  Node Depth Summary
  ******************
  
  ---------------------------------------------------------------------------------
                                 Average  Maximum  Maximum  Time of Max    Reported
                                   Depth    Depth      HGL   Occurrence   Max Depth
  Node                 Type       Meters   Meters   Meters  days hr:min      Meters
  ---------------------------------------------------------------------------------
  WS02001211           JUNCTION     0.68     0.79     5.63     0  06:47        0.79
  WS02001212           JUNCTION     0.40     0.50     5.56     0  06:47        0.50
  WS02001213           JUNCTION     0.62     0.75     5.51     0  06:46        0.75
  WS02003069           JUNCTION     0.40     0.56     5.15     0  06:45        0.56
  WS02003072           JUNCTION     0.47     0.62     4.99     0  06:45        0.62
  WS02003073           JUNCTION     0.28     0.38     4.45     0  06:46        0.38
  WS02003060           JUNCTION     0.36     0.50     5.43     0  06:44        0.49
  WS02003066           JUNCTION     0.19     0.29     5.84     0  05:39        0.29
  WS02003059           JUNCTION     0.67     0.80     5.48     0  06:45        0.80
  WS02003067           JUNCTION     0.48     0.69     6.01     0  05:38        0.69
  WS02004401           JUNCTION     0.56     0.83     6.83     0  05:35        0.83
  WS02004402           JUNCTION     0.60     0.86     6.82     0  05:35        0.86
  WS02004403           JUNCTION     0.62     0.88     6.81     0  05:35        0.87
  WS02004404           JUNCTION     0.70     0.95     6.80     0  05:35        0.95
  WS02004406           JUNCTION     0.71     0.94     6.77     0  05:36        0.94
  WS02004409           JUNCTION     0.37     0.64     6.41     0  05:38        0.64
  WS02004410           JUNCTION     0.39     0.65     6.37     0  05:38        0.65
  WS02004411           JUNCTION     0.42     0.67     6.35     0  05:38        0.66
  WS02004412           JUNCTION     0.44     0.68     6.32     0  05:38        0.67
  WS02004413           JUNCTION     0.60     0.84     6.31     0  05:38        0.84
  WS02004405           JUNCTION     0.69     0.94     6.79     0  05:35        0.94
  WS02006109           JUNCTION     0.62     0.99     7.61     0  05:31        0.98
  WS02006110           JUNCTION     0.63     0.93     7.52     0  05:31        0.93
  WS02006111           JUNCTION     0.17     0.29     7.00     0  05:32        0.29
  WS02006112           JUNCTION     0.71     1.02     6.91     0  05:35        1.02
  WS02006113           JUNCTION     0.26     0.46     7.35     0  05:31        0.46
  WS02006115           JUNCTION     0.44     0.73     6.87     0  05:35        0.73
  WS02006116           JUNCTION     0.53     0.81     6.85     0  05:35        0.81
  WS02006230           JUNCTION     0.56     1.13     7.87     0  05:31        1.12
  WS02006231           JUNCTION     0.35     0.87     7.99     0  05:31        0.86
  WS02006232           JUNCTION     0.47     1.07     8.11     0  05:30        1.05
  WS02006234           JUNCTION     0.38     1.08     8.24     0  05:30        1.06
  WS02006235           JUNCTION     0.42     1.16     8.33     0  05:31        1.15
  WS02006238           JUNCTION     0.44     1.19     8.34     0  05:31        1.18
  WS02006240           JUNCTION     0.35     1.14     8.43     0  05:30        1.13
  WS02006242           JUNCTION     0.40     1.22     8.49     0  05:30        1.21
  WS02006243           JUNCTION     0.30     1.13     8.55     0  05:31        1.11
  WS02006245           JUNCTION     0.29     1.11     8.60     0  05:30        1.10
  WS02006247           JUNCTION     0.30     1.13     8.63     0  05:30        1.12
  WS02006248           JUNCTION     0.26     1.08     8.67     0  05:30        1.07
  WS02006249           JUNCTION     0.29     1.09     8.69     0  05:30        1.09
  WS02006239           JUNCTION     0.40     1.18     8.39     0  05:30        1.16
  WS02006251           JUNCTION     0.27     1.22     8.89     0  05:30        1.12
  WS02006252           JUNCTION     0.20     0.77     9.01     0  05:30        0.67
  WS02006253           JUNCTION     0.30     1.27     8.92     0  05:30        1.15
  WS02006256           JUNCTION     1.13     2.35     9.28     0  00:12        2.35
  WS02004138           JUNCTION     0.15     0.20     7.45     0  00:00        0.19
  WS02004139           JUNCTION     0.62     0.73     5.64     0  06:47        0.73
  WS02004407           JUNCTION     0.17     0.29     6.60     0  05:36        0.29
  WS02006228           JUNCTION     0.61     1.04     7.69     0  05:31        1.03
  WS02006229           JUNCTION     0.57     1.03     7.73     0  05:31        1.03
  WS02006280           JUNCTION     0.05     0.14     8.41     0  02:15        0.14
  WS02006284           JUNCTION     0.34     0.47     8.87     0  02:15        0.47
  WS02006287           JUNCTION     0.07     0.20     9.15     0  02:14        0.20
  WSF200               JUNCTION     0.16     0.29     5.52     0  06:13        0.29
  HS02004901           JUNCTION     0.10     0.22    10.04     0  02:12        0.22
  HS02004881           JUNCTION     0.00     0.02     9.05     0  02:14        0.02
  HS02004876           JUNCTION     0.03     0.10     9.13     0  02:13        0.10
  HS02004870           JUNCTION     0.01     0.04     9.32     0  02:14        0.04
  HS02004862           JUNCTION     0.01     0.04     9.43     0  02:15        0.04
  HS02004856           JUNCTION     0.07     0.10     9.53     0  02:15        0.10
  HS02004852           JUNCTION     0.00     0.02     9.54     0  02:16        0.02
  HS02004848           JUNCTION     0.00     0.02     9.63     0  02:13        0.02
  HS02004842           JUNCTION     0.33     0.36     9.63     0  02:13        0.36
  HS02004837           JUNCTION     0.02     0.05     9.63     0  02:13        0.05
  HS02004830           JUNCTION     0.03     0.06     9.53     0  02:14        0.06
  HS02004824           JUNCTION     0.02     0.04     9.44     0  02:17        0.04
  HS02004817           JUNCTION     0.41     0.51     9.36     0  02:15        0.51
  HS02004807           JUNCTION     0.10     0.19     9.36     0  02:15        0.19
  HS02004802           JUNCTION     0.14     0.23     9.35     0  02:15        0.23
  HS02004799           JUNCTION     0.09     0.24     9.45     0  02:13        0.24
  HS02004792           JUNCTION     0.02     0.09     9.61     0  02:12        0.09
  HS02004788           JUNCTION     0.02     0.07     9.97     0  02:13        0.07
  HS02004785           JUNCTION     0.03     0.12    10.03     0  02:13        0.12
  HS02004777           JUNCTION     0.12     0.24    10.04     0  02:13        0.24
  HS02004770           JUNCTION     0.09     0.21    10.04     0  02:12        0.21
  HS02004480           JUNCTION     0.05     0.18     9.43     0  02:13        0.18
  HS02004479           JUNCTION     0.09     0.22     9.43     0  02:13        0.22
  HS02004478           JUNCTION     0.04     0.12     9.34     0  02:14        0.12
  YS02001745           JUNCTION     0.38     0.63     8.15     0  05:52        0.63
  YS02001748           JUNCTION     0.73     1.07     8.15     0  05:52        1.07
  YS02001751           JUNCTION     0.90     1.27     8.15     0  05:52        1.27
  YS02001754           JUNCTION     1.14     1.54     8.15     0  05:52        1.54
  YS02001762           JUNCTION     1.33     1.76     8.16     0  05:52        1.75
  YS02001765           JUNCTION     1.28     1.71     8.16     0  05:52        1.70
  YS02001767           JUNCTION     1.25     1.67     8.16     0  05:52        1.66
  YS02001770           JUNCTION     1.24     1.66     8.15     0  05:51        1.65
  YS02001774           JUNCTION     1.31     1.73     8.16     0  05:52        1.73
  YS02001779           JUNCTION     1.07     1.47     8.16     0  05:52        1.46
  YS02001882           JUNCTION     0.24     0.42     7.13     0  02:46        0.42
  YS02001884           JUNCTION     0.33     0.52     7.13     0  02:46        0.52
  YS02001759           JUNCTION     1.36     1.79     8.16     0  05:52        1.78
  YS02001887           JUNCTION     0.40     0.60     7.13     0  02:46        0.60
  YS02001890           JUNCTION     0.44     0.63     7.13     0  02:46        0.63
  YS02001898           JUNCTION     0.21     0.38     7.12     0  02:47        0.38
  YS02001901           JUNCTION     0.32     0.51     7.12     0  02:48        0.51
  YS02001904           JUNCTION     0.30     0.48     7.11     0  02:48        0.48
  YS02001907           JUNCTION     0.63     0.83     7.12     0  02:47        0.83
  YS02001910           JUNCTION     0.42     0.61     7.12     0  02:47        0.61
  YS02001915           JUNCTION     0.23     0.40     7.11     0  02:47        0.40
  YS02001918           JUNCTION     0.07     0.09     7.16     0  03:03        0.09
  YS02001619           JUNCTION     0.86     1.23     8.16     0  05:18        1.23
  YS02001629           JUNCTION     1.19     1.61     8.16     0  05:18        1.61
  YS02001641           JUNCTION     1.30     1.72     8.16     0  05:52        1.71
  YS02001644           JUNCTION     1.30     1.72     8.16     0  05:52        1.72
  YS02001652           JUNCTION     1.15     1.56     8.15     0  05:51        1.55
  YS02001655           JUNCTION     0.93     1.30     8.15     0  05:55        1.30
  YS02001920           JUNCTION     0.16     0.19     7.20     0  03:02        0.19
  YS02001923           JUNCTION     0.05     0.08     7.34     0  03:01        0.08
  YS02001926           JUNCTION     0.12     0.16     7.61     0  03:01        0.16
  YS02001929           JUNCTION     0.06     0.08     7.77     0  03:01        0.08
  YS02001658           JUNCTION     0.68     1.01     8.15     0  05:51        1.01
  YS02001661           JUNCTION     0.48     0.74     8.15     0  05:52        0.74
  YS02001664           JUNCTION     0.11     0.22     8.15     0  05:52        0.22
  YS02001622           JUNCTION     0.88     1.26     8.16     0  05:18        1.25
  YS02001633           JUNCTION     1.28     1.70     8.16     0  05:18        1.70
  YS02001649           JUNCTION     1.34     1.76     8.15     0  05:51        1.76
  YS02001757           JUNCTION     1.46     1.89     8.15     0  05:52        1.89
  YS02001895           JUNCTION     0.20     0.38     7.13     0  02:47        0.38
  YS02001625           JUNCTION     1.15     1.56     8.16     0  05:18        1.55
  YS02163301           JUNCTION     1.22     1.64     8.16     0  05:18        1.64
  YS02163601           JUNCTION     1.33     1.76     8.16     0  05:51        1.75
  YS02164001           JUNCTION     1.28     1.70     8.15     0  05:18        1.69
  YS02001647           JUNCTION     1.14     1.54     8.15     0  05:52        1.54
  YSB1154              JUNCTION     0.22     0.37     9.43     0  02:13        0.37
  YSB6556              JUNCTION     0.12     0.26     9.43     0  02:13        0.26
  YSB1174              JUNCTION     0.18     0.32     9.43     0  02:13        0.32
  YSB1171              JUNCTION     0.38     0.52     9.43     0  02:13        0.52
  YS02006553           JUNCTION     0.63     0.83     7.11     0  02:47        0.83
  YS02006561           JUNCTION     0.11     0.21     6.87     0  02:48        0.21
  YS02006556           JUNCTION     0.61     0.80     7.11     0  02:48        0.80
  YS02006558           JUNCTION     0.65     0.84     7.11     0  02:48        0.84
  YS02001783           JUNCTION     0.20     0.63     6.77     0  02:39        0.60
  YS02001784           JUNCTION     0.23     0.70     6.77     0  02:39        0.66
  YS02001786           JUNCTION     0.20     0.68     6.71     0  02:40        0.66
  YS02001788           JUNCTION     0.15     0.73     6.71     0  02:38        0.73
  YS02001790           JUNCTION     0.19     1.03     6.68     0  02:38        1.03
  YS02001791           JUNCTION     0.15     1.17     6.64     0  02:38        1.17
  YS02001793           JUNCTION     0.15     1.79     6.62     0  02:38        1.78
  WSC                  OUTFALL      0.28     0.38     1.05     0  06:46        0.38
  JK-storage           STORAGE      1.46     5.80     6.60     0  02:38        5.80
  CC-storage           STORAGE      0.77     1.14     8.14     0  05:53        1.14
  XR-storage           STORAGE      1.89     5.00     3.00     0  00:00        4.96
  
  
  *******************
  Node Inflow Summary
  *******************
  
  -------------------------------------------------------------------------------------------------
                                  Maximum  Maximum                  Lateral       Total        Flow
                                  Lateral    Total  Time of Max      Inflow      Inflow     Balance
                                   Inflow   Inflow   Occurrence      Volume      Volume       Error
  Node                 Type           LPS      LPS  days hr:min    10^6 ltr    10^6 ltr     Percent
  -------------------------------------------------------------------------------------------------
  WS02001211           JUNCTION      7.35   388.97     0  07:00       0.207        8.16       0.481
  WS02001212           JUNCTION      0.00   390.50     0  06:59           0        8.12       0.301
  WS02001213           JUNCTION      0.00   392.02     0  06:59           0         8.1       0.316
  WS02003069           JUNCTION      0.32   879.57     0  06:44     0.00902          13       0.204
  WS02003072           JUNCTION      0.00   879.45     0  06:45           0          13       0.260
  WS02003073           JUNCTION      1.82   881.39     0  06:45      0.0514          13       0.287
  WS02003060           JUNCTION     16.53   879.04     0  06:44       0.466          13       0.199
  WS02003066           JUNCTION      0.00   498.18     0  05:39           0        4.53       0.061
  WS02003059           JUNCTION      0.00   394.61     0  07:01           0        8.09       0.468
  WS02003067           JUNCTION      0.00   498.00     0  05:39           0        4.54       0.141
  WS02004401           JUNCTION      0.00   523.21     0  05:33           0         4.7       0.316
  WS02004402           JUNCTION      0.00   516.03     0  05:33           0        4.68       0.310
  WS02004403           JUNCTION      0.00   515.71     0  05:35           0        4.67       0.293
  WS02004404           JUNCTION      0.16   515.22     0  05:35     0.00457        4.66       0.232
  WS02004406           JUNCTION      0.00   514.95     0  05:35           0        4.63       0.573
  WS02004409           JUNCTION      0.00   514.27     0  05:36           0         4.6       0.185
  WS02004410           JUNCTION      0.00   507.27     0  05:36           0        4.59       0.226
  WS02004411           JUNCTION      0.00   503.03     0  05:37           0        4.58       0.247
  WS02004412           JUNCTION      0.00   500.43     0  05:38           0        4.57       0.288
  WS02004413           JUNCTION      0.00   498.67     0  05:38           0        4.56       0.458
  WS02004405           JUNCTION      0.04   514.68     0  05:35     0.00107        4.65       0.349
  WS02006109           JUNCTION      1.23   549.46     0  05:31      0.0347        4.75       0.169
  WS02006110           JUNCTION      0.00   549.36     0  05:31           0        4.74       0.276
  WS02006111           JUNCTION      0.00   568.88     0  05:31           0        4.72       0.042
  WS02006112           JUNCTION      7.94   549.54     0  05:32      0.0238        4.74       0.470
  WS02006113           JUNCTION      0.00   551.69     0  05:31           0        4.73       0.093
  WS02006115           JUNCTION      0.00   545.31     0  05:32           0        4.72       0.251
  WS02006116           JUNCTION      0.00   533.39     0  05:33           0        4.71       0.231
  WS02006230           JUNCTION     10.28   534.07     0  05:30        0.29         3.9       0.176
  WS02006231           JUNCTION      0.00   523.96     0  05:30           0        3.61       0.081
  WS02006232           JUNCTION      0.00   524.06     0  05:30           0        3.62       0.246
  WS02006234           JUNCTION      0.00   523.23     0  05:30           0        3.62      -0.087
  WS02006235           JUNCTION      0.00   524.05     0  05:30           0        3.76       0.237
  WS02006238           JUNCTION      0.00   418.66     0  06:10           0         1.9       0.078
  WS02006240           JUNCTION      0.00   417.09     0  06:10           0        1.78       0.092
  WS02006242           JUNCTION      0.00   416.51     0  06:10           0        1.73       0.131
  WS02006243           JUNCTION      0.00   415.89     0  06:10           0        1.68      -0.372
  WS02006245           JUNCTION      0.00   415.07     0  06:10           0        1.68       0.397
  WS02006247           JUNCTION      0.00   414.74     0  06:10           0        1.67       0.078
  WS02006248           JUNCTION      0.00   414.39     0  06:40           0        1.67      -0.182
  WS02006249           JUNCTION      0.00   418.98     0  06:04           0         1.7       0.210
  WS02006239           JUNCTION      0.00   417.97     0  06:10           0        1.85      -0.038
  WS02006251           JUNCTION      0.08   408.95     0  06:04     0.00217        1.74      -0.029
  WS02006252           JUNCTION      0.00   400.00     0  06:00           0        1.56       0.011
  WS02006253           JUNCTION      1.17   100.50     0  06:02     0.00308       0.182       0.131
  WS02006256           JUNCTION      0.00   983.00     0  02:50           0        3.31      -0.003
  WS02004138           JUNCTION      0.00   380.00     0  00:00           0        7.98       0.079
  WS02004139           JUNCTION      0.32   394.45     0  00:00     0.00905        7.99       0.561
  WS02004407           JUNCTION      0.00   514.51     0  05:36           0        4.61       0.086
  WS02006228           JUNCTION      0.00   548.09     0  05:31           0        4.72       0.135
  WS02006229           JUNCTION      0.00   546.95     0  05:30           0        4.73       0.213
  WS02006280           JUNCTION      0.00   184.76     0  02:15           0       0.838       0.009
  WS02006284           JUNCTION      0.10   184.75     0  02:14      0.0027       0.839       0.135
  WS02006287           JUNCTION      0.00   184.66     0  02:14           0       0.837       0.085
  WSF200               JUNCTION      0.00   498.13     0  05:39           0        4.53       0.044
  HS02004901           JUNCTION      9.78     9.78     0  02:07      0.0286      0.0288       6.506
  HS02004881           JUNCTION      4.01    34.77     0  02:14      0.0125        0.13       0.052
  HS02004876           JUNCTION      6.51    31.03     0  02:14      0.0239       0.118       0.442
  HS02004870           JUNCTION      7.14    24.69     0  02:14      0.0236      0.0947       0.113
  HS02004862           JUNCTION      5.98    18.05     0  02:14      0.0292      0.0712       0.236
  HS02004856           JUNCTION      5.30    12.14     0  02:14      0.0178      0.0435       3.420
  HS02004852           JUNCTION      0.00     7.20     0  02:14           0      0.0257       0.191
  HS02004848           JUNCTION     11.88    11.88     0  02:16      0.0562      0.0562       0.079
  HS02004842           JUNCTION      0.00     5.04     0  02:25           0      0.0435      42.668
  HS02004837           JUNCTION     17.87    22.30     0  02:13        0.22       0.251       0.326
  HS02004830           JUNCTION      0.15    22.43     0  02:13     0.00423       0.241       0.514
  HS02004824           JUNCTION     13.33    35.63     0  02:16      0.0737       0.313       0.173
  HS02004817           JUNCTION      0.60    36.22     0  02:17      0.0169        0.33       5.320
  HS02004807           JUNCTION     13.39    48.49     0  02:15      0.0435       0.357       1.199
  HS02004802           JUNCTION      0.00    48.67     0  02:16           0       0.352       1.164
  HS02004799           JUNCTION     10.36   115.97     0  02:12      0.0351        0.43       0.545
  HS02004792           JUNCTION     46.01   105.83     0  02:12       0.154       0.395       0.106
  HS02004788           JUNCTION     15.76    61.56     0  02:13      0.0959       0.242       0.161
  HS02004785           JUNCTION      0.15    46.24     0  02:12     0.00423       0.148       0.325
  HS02004777           JUNCTION      0.03    46.62     0  02:10    0.000846       0.148       3.613
  HS02004770           JUNCTION     38.83    47.69     0  02:09       0.122       0.149       2.119
  HS02004480           JUNCTION      0.00   136.74     0  02:13           0       0.501       0.141
  HS02004479           JUNCTION      0.00    21.24     0  02:15           0      0.0829       0.888
  HS02004478           JUNCTION      0.00   184.66     0  02:14           0       0.838       0.071
  YS02001745           JUNCTION     64.07    64.07     0  02:54       0.738       0.738       0.934
  YS02001748           JUNCTION      0.04    64.12     0  02:54     0.00127       0.733       2.935
  YS02001751           JUNCTION      0.01   106.14     0  03:01     0.00031       0.712       3.568
  YS02001754           JUNCTION      0.26    79.55     0  02:37     0.00733       0.695       3.865
  YS02001762           JUNCTION      0.00    91.60     0  02:34           0       0.784       2.980
  YS02001765           JUNCTION      0.00    94.90     0  02:39           0       0.788       3.336
  YS02001767           JUNCTION      0.54   110.31     0  03:06      0.0151       0.811       4.704
  YS02001770           JUNCTION     83.12   111.15     0  03:05       0.867        0.88       3.913
  YS02001774           JUNCTION      0.00    42.80     0  03:05           0       0.067      65.185
  YS02001779           JUNCTION      0.01    40.11     0  03:05    0.000141      0.0278     134.339
  YS02001882           JUNCTION      0.00     3.29     0  02:04           0     0.00471      52.163
  YS02001884           JUNCTION      0.00     9.72     0  02:07           0       0.019      33.258
  YS02001759           JUNCTION     81.57   170.42     0  02:34        0.81        1.56       1.589
  YS02001887           JUNCTION    108.43   108.43     0  02:36       0.971       0.981       0.721
  YS02001890           JUNCTION      0.00   107.54     0  02:39           0       0.958       0.809
  YS02001898           JUNCTION      0.00   107.05     0  02:42           0       0.947       0.219
  YS02001901           JUNCTION      0.00   106.89     0  02:42           0       0.946       0.573
  YS02001904           JUNCTION      0.00   106.64     0  02:44           0       0.945       0.532
  YS02001907           JUNCTION      0.00   192.61     0  02:49           0        2.02       1.093
  YS02001910           JUNCTION      0.00    87.25     0  02:59           0        1.08       0.928
  YS02001915           JUNCTION     57.63    86.83     0  02:57       0.633        1.09       0.404
  YS02001918           JUNCTION      0.00    29.86     0  03:02           0       0.457       0.232
  YS02001619           JUNCTION     55.96    55.96     0  02:51       0.624       0.624       2.110
  YS02001629           JUNCTION      0.00    74.59     0  03:07           0       0.541       5.884
  YS02001641           JUNCTION      0.00   114.33     0  03:03           0        1.16       1.956
  YS02001644           JUNCTION     60.83   173.23     0  02:57       0.708        1.84       1.510
  YS02001652           JUNCTION      0.00    86.87     0  03:00           0       0.653       3.893
  YS02001655           JUNCTION      0.15   106.09     0  02:56     0.00434       0.678       3.921
  YS02001920           JUNCTION      2.87    29.87     0  03:02      0.0809       0.459       0.429
  YS02001923           JUNCTION      0.04    27.00     0  03:01     0.00106       0.379       0.075
  YS02001926           JUNCTION      0.05    27.00     0  03:01     0.00147        0.38       0.536
  YS02001929           JUNCTION     26.96    26.96     0  03:01       0.378       0.378       0.073
  YS02001658           JUNCTION      0.00    76.55     0  02:38           0       0.695       3.160
  YS02001661           JUNCTION      0.00    76.55     0  02:38           0       0.709       1.930
  YS02001664           JUNCTION     76.55    76.55     0  02:38       0.709       0.709       0.079
  YS02001622           JUNCTION      0.00    70.83     0  03:06           0       0.611       5.623
  YS02001633           JUNCTION     61.84   121.61     0  02:49       0.729        1.22       2.763
  YS02001649           JUNCTION      0.00   250.03     0  02:45           0         2.4       1.657
  YS02001757           JUNCTION      0.00   445.63     0  02:48           0        4.53       2.113
  YS02001895           JUNCTION      0.00   107.27     0  02:40           0        0.95       0.379
  YS02001625           JUNCTION      0.00    66.84     0  03:08           0       0.579       7.370
  YS02163301           JUNCTION      0.00    64.52     0  03:10           0       0.519       5.115
  YS02163601           JUNCTION      0.11   121.02     0  03:03      0.0031        1.19       2.689
  YS02164001           JUNCTION      0.00   118.81     0  03:03           0        1.16       1.956
  YS02001647           JUNCTION      0.00   176.57     0  02:56           0         1.8       1.688
  YSB1154              JUNCTION     11.57    11.57     0  02:11      0.0426      0.0438       3.410
  YSB6556              JUNCTION      0.00    11.52     0  02:13           0      0.0447       2.860
  YSB1174              JUNCTION     11.02    11.02     0  02:07       0.031      0.0319       4.196
  YSB1171              JUNCTION      0.00    21.26     0  02:12           0      0.0821       8.334
  YS02006553           JUNCTION      0.00   192.69     0  02:50           0        2.01       0.710
  YS02006561           JUNCTION      0.00   283.06     0  02:48           0        2.84       0.022
  YS02006556           JUNCTION      0.00   192.75     0  02:50           0        2.01       0.511
  YS02006558           JUNCTION     91.37   283.07     0  02:48       0.885        2.87       0.156
  YS02001783           JUNCTION      0.00   283.06     0  02:48           0        2.84       0.051
  YS02001784           JUNCTION      1.06   352.92     0  02:39      0.0299        2.87       0.082
  YS02001786           JUNCTION      0.06   340.39     0  02:40     0.00159        2.87       0.082
  YS02001788           JUNCTION      0.07   381.46     0  02:46       0.002        2.87       0.047
  YS02001790           JUNCTION      0.15   448.85     0  02:46     0.00437        2.87       0.031
  YS02001791           JUNCTION      0.00   497.50     0  02:46           0        2.87       0.023
  YS02001793           JUNCTION      0.00   538.65     0  02:47           0        2.87       0.023
  WSC                  OUTFALL       0.00   881.51     0  06:46           0        12.9       0.000
  JK-storage           STORAGE       0.00   591.23     0  02:50           0        3.02     -16.736
  CC-storage           STORAGE       0.00   441.96     0  02:52           0        4.43       1.271
  XR-storage           STORAGE     314.15   314.15     0  02:49        7.02        7.62      -4.464
  
  
  **********************
  Node Surcharge Summary
  **********************
  
  Surcharging occurs when water rises above the top of the highest conduit.
  ---------------------------------------------------------------------
                                               Max. Height   Min. Depth
                                   Hours       Above Crown    Below Rim
  Node                 Type      Surcharged         Meters       Meters
  ---------------------------------------------------------------------
  WS02006109           JUNCTION        0.66          0.170        1.650
  WS02006110           JUNCTION        0.15          0.025        1.825
  WS02006112           JUNCTION        0.16          0.023        1.657
  WS02006230           JUNCTION        0.07          0.045        1.525
  WS02006231           JUNCTION        0.28          0.161        1.369
  WS02006232           JUNCTION        0.75          0.367        1.113
  WS02006234           JUNCTION        0.54          0.358        0.882
  WS02006235           JUNCTION        0.64          0.453        0.837
  WS02006238           JUNCTION        0.69          0.474        0.956
  WS02006240           JUNCTION        0.58          0.431        0.959
  WS02006242           JUNCTION        0.66          0.491        0.329
  WS02006243           JUNCTION        0.53          0.416        0.354
  WS02006245           JUNCTION        0.50          0.403        0.447
  WS02006247           JUNCTION        0.52          0.422        0.338
  WS02006248           JUNCTION        0.45          0.360        0.020
  WS02006249           JUNCTION        0.47          0.390        0.000
  WS02006239           JUNCTION        0.60          0.438        0.852
  WS02006251           JUNCTION        0.22          0.190        0.990
  WS02006252           JUNCTION        0.78          0.372        0.728
  WS02006253           JUNCTION        0.23          0.234        2.246
  WS02006256           JUNCTION        6.15          2.050        0.000
  WS02006228           JUNCTION        0.64          0.206        1.994
  YS02001751           JUNCTION        3.57          0.274        0.926
  YS02001754           JUNCTION        4.22          0.493        0.657
  YS02001762           JUNCTION        4.98          0.760        0.390
  YS02001765           JUNCTION        4.80          0.710        0.390
  YS02001767           JUNCTION        4.69          0.666        0.364
  YS02001770           JUNCTION        4.58          0.628        0.292
  YS02001774           JUNCTION        4.90          0.734        0.316
  YS02001779           JUNCTION        4.14          0.469        0.211
  YS02001759           JUNCTION        5.09          0.795        0.415
  YS02001619           JUNCTION        3.42          0.234        0.376
  YS02001629           JUNCTION        3.42          0.232        0.238
  YS02001641           JUNCTION        4.87          0.718        0.382
  YS02001644           JUNCTION        4.88          0.724        0.196
  YS02001652           JUNCTION        4.31          0.528        0.602
  YS02001655           JUNCTION        3.67          0.304        0.896
  YS02001658           JUNCTION        0.16          0.008        1.292
  YS02001622           JUNCTION        3.50          0.259        0.361
  YS02001633           JUNCTION        4.75          0.683        0.377
  YS02001649           JUNCTION        5.01          0.763        0.287
  YS02001757           JUNCTION        5.33          0.893        0.317
  YS02001625           JUNCTION        4.38          0.558        0.222
  YS02163301           JUNCTION        4.62          0.642        0.388
  YS02163601           JUNCTION        5.00          0.758        0.322
  YS02164001           JUNCTION        4.80          0.695        0.405
  YS02001647           JUNCTION        4.35          0.540        0.360
  YS02001790           JUNCTION        0.32          0.233        0.924
  YS02001791           JUNCTION        0.42          0.369        1.551
  YS02001793           JUNCTION        0.58          0.785        1.815
  
  
  *********************
  Node Flooding Summary
  *********************
  
  Flooding refers to all water that overflows a node, whether it ponds or not.
  --------------------------------------------------------------------------
                                                             Total   Maximum
                                 Maximum   Time of Max       Flood    Ponded
                        Hours       Rate    Occurrence      Volume     Depth
  Node                 Flooded       LPS   days hr:min    10^6 ltr    Meters
  --------------------------------------------------------------------------
  WS02006249              0.19     81.12      0  05:30       0.025     0.000
  WS02006256              1.40    734.38      0  02:56       1.352     0.000
  JK-storage              0.17    321.80      0  02:40       0.108     0.000
  
  
  **********************
  Storage Volume Summary
  **********************
  
  --------------------------------------------------------------------------------------------------
                         Average     Avg  Evap Exfil       Maximum     Max    Time of Max    Maximum
                          Volume    Pcnt  Pcnt  Pcnt        Volume    Pcnt     Occurrence    Outflow
  Storage Unit           1000 m3    Full  Loss  Loss       1000 m3    Full    days hr:min        LPS
  --------------------------------------------------------------------------------------------------
  JK-storage               0.073      25     0     0         0.291     100       0  02:38     983.00
  CC-storage               2.156      14     0     0         3.184      20       0  05:53     400.00
  XR-storage               0.227      25     0     0         0.600      65       0  00:00     380.00
  
  
  ***********************
  Outfall Loading Summary
  ***********************
  
  ---------------------------------------------------------------------------------------------------------------------------------
                         Flow       Avg       Max       Total         Total         Total         Total         Total         Total
                         Freq      Flow      Flow      Volume           COD            SS            TN            TP         NH4-N
  Outfall Node           Pcnt       LPS       LPS    10^6 ltr            kg            kg            kg            kg            kg
  ---------------------------------------------------------------------------------------------------------------------------------
  WSC                   99.99    512.35    881.51      12.950      1735.296      2793.813       151.224        18.644        93.834
  ---------------------------------------------------------------------------------------------------------------------------------
  System                99.99    512.35    881.51      12.950      1735.296      2793.813       151.224        18.644        93.834
  
  
  ********************
  Link Flow Summary
  ********************
  
  -----------------------------------------------------------------------------
                                 Maximum  Time of Max   Maximum    Max/    Max/
                                  |Flow|   Occurrence   |Veloc|    Full    Full
  Link                 Type          LPS  days hr:min     m/sec    Flow   Depth
  -----------------------------------------------------------------------------
  WS02003066WSF200     CONDUIT    498.13     0  05:39      2.82    0.08    0.22
  WS02006287WS02006284 CONDUIT    184.65     0  02:14      1.56    0.09    0.21
  WS02006284WS02006280 CONDUIT    184.76     0  02:15      1.80    0.08    0.19
  WS02006280WS02006229 CONDUIT    184.76     0  02:15      2.90    0.04    0.14
  WS02006229WS02006228 CONDUIT    548.09     0  05:31      1.09    1.82    1.00
  WS02006256WS02006235 CONDUIT    264.10     0  00:12      3.74    2.80    1.00
  WS02006253WS02006251 CONDUIT     99.86     0  06:02      0.47    0.30    1.00
  WS02006252WS02006251 CONDUIT    402.64     0  06:04      3.20    1.48    1.00
  WS02006251WS02006249 CONDUIT    418.98     0  06:04      1.12    1.21    1.00
  WS02006249WS02006248 CONDUIT    414.39     0  06:40      1.16    2.27    1.00
  WS02006248WS02006247 CONDUIT    414.74     0  06:10      1.11    0.90    1.00
  WS02006247WS02006245 CONDUIT    415.07     0  06:10      1.08    3.29    1.00
  WS02006245WS02006243 CONDUIT    415.89     0  06:10      1.08    1.23    1.00
  WS02006243WS02006242 CONDUIT    416.51     0  06:10      1.08    0.89    1.00
  WS02006242WS02006240 CONDUIT    417.09     0  06:10      1.08    1.66    1.00
  WS02006240WS02006239 CONDUIT    417.97     0  06:10      1.09    1.32    1.00
  WS02006239WS02006238 CONDUIT    418.66     0  06:10      1.09    1.34    1.00
  WS02006238WS02006235 CONDUIT    420.65     0  06:10      1.09    0.94    1.00
  WS02006235WS02006234 CONDUIT    523.23     0  05:30      1.36    5.52    1.00
  WS02006234WS02006232 CONDUIT    524.06     0  05:30      1.36    1.06    1.00
  WS02006232WS02006231 CONDUIT    523.96     0  05:30      1.36    1.10    1.00
  WS02006231WS02006230 CONDUIT    523.80     0  05:30      1.37    7.95    1.00
  WS02006230WS02006229 CONDUIT    534.57     0  05:30      1.39   11.90    1.00
  WS02006228WS02006109 CONDUIT    548.23     0  05:31      1.09    2.40    1.00
  WS02006116WS02004401 CONDUIT    523.21     0  05:33      0.88    0.72    0.82
  WS02006115WS02006116 CONDUIT    533.39     0  05:33      0.89    0.68    0.74
  WS02006113WS02006111 CONDUIT    568.88     0  05:31      2.47    0.68    0.47
  WS02006112WS02006115 CONDUIT    545.31     0  05:32      0.77    0.32    0.86
  WS02006111WS02006112 CONDUIT    549.50     0  05:32      1.58    0.26    0.67
  WS02006110WS02006113 CONDUIT    551.69     0  05:31      1.30    0.50    0.79
  WS02006109WS02006110 CONDUIT    549.36     0  05:31      1.09    1.06    1.00
  WS02004411WS02004412 CONDUIT    500.43     0  05:38      0.90    0.71    0.67
  WS02004401WS02004402 CONDUIT    516.03     0  05:33      0.88    0.62    0.85
  WS02004413WS02003067 CONDUIT    498.00     0  05:39      1.07    0.21    0.57
  WS02004412WS02004413 CONDUIT    498.67     0  05:38      0.78    0.33    0.76
  WS02004410WS02004411 CONDUIT    503.03     0  05:37      0.93    0.69    0.66
  WS02004409WS02004410 CONDUIT    507.27     0  05:36      0.98    0.66    0.65
  WS02004407WS02004409 CONDUIT    514.27     0  05:36      1.51    0.18    0.46
  WS02004406WS02004407 CONDUIT    514.51     0  05:36      1.01    0.23    0.62
  WS02004405WS02004406 CONDUIT    514.95     0  05:35      0.74    1.02    0.94
  WS02004404WS02004405 CONDUIT    514.64     0  05:35      0.96    5.04    0.94
  WS02004403WS02004404 CONDUIT    515.06     0  05:35      0.82    0.37    0.91
  WS02004402WS02004403 CONDUIT    515.71     0  05:35      0.87    0.74    0.87
  WS02004139WS02001211 CONDUIT    381.62     0  07:00      0.90    0.48    0.59
  WS02004138WS02004139 CONDUIT    394.13     0  00:00      3.62    0.08    0.44
  WS02003067WS02003066 CONDUIT    498.18     0  05:39      1.16    0.16    0.41
  WS02001213WS02003059 CONDUIT    394.61     0  07:01      0.89    0.65    0.76
  WS02001212WS02001213 CONDUIT    392.02     0  06:59      1.32    0.60    0.46
  WS02001211WS02001212 CONDUIT    390.50     0  06:59      0.78    0.30    0.64
  WS02003072WS02003073 CONDUIT    879.57     0  06:45      1.69    1.90    0.47
  WS02003069WS02003072 CONDUIT    879.45     0  06:45      1.59    0.42    0.49
  WS02003060WS02003069 CONDUIT    879.25     0  06:44      1.84    0.34    0.44
  WS02003059WS02003060 CONDUIT    398.37     0  07:01      0.95    0.26    0.64
  HS02004901HS02004770 CONDUIT      9.07     0  02:11      0.04    0.03    0.31
  HS02004876HS02004881 CONDUIT     31.09     0  02:14      0.52    0.33    0.09
  HS02004870HS02004876 CONDUIT     24.67     0  02:14      0.37    0.02    0.10
  HS02004842HS02004848 CONDUIT      5.04     0  02:25      0.03    0.00    0.27
  HS02004837HS02004842 CONDUIT      5.22     0  02:25      0.42    0.00    0.29
  HS02004830HS02004837 CONDUIT     22.28     0  02:13      0.43    0.02    0.07
  HS02004824HS02004830 CONDUIT     22.43     0  02:14      0.47    0.03    0.07
  HS02004817HS02004824 CONDUIT     35.62     0  02:17      0.17    0.02    0.39
  HS02004770HS02004777 CONDUIT     46.59     0  02:10      0.21    0.09    0.32
  HS02004799HS02004480 CONDUIT    115.79     0  02:12      0.56    0.15    0.30
  HS02004792HS02004799 CONDUIT    105.77     0  02:12      0.64    0.06    0.23
  HS02004788HS02004792 CONDUIT     61.50     0  02:13      0.80    0.04    0.11
  HS02004785HS02004788 CONDUIT     46.10     0  02:13      0.48    0.35    0.14
  HS02004777HS02004785 CONDUIT     46.09     0  02:12      0.25    0.06    0.26
  HS02004480HS02004478 CONDUIT    136.73     0  02:13      0.92    0.58    0.21
  HS02004479HS02004480 CONDUIT     21.44     0  02:15      0.16    0.02    0.29
  HS02004862HS02004870 CONDUIT     18.01     0  02:15      0.45    0.02    0.06
  HS02004848HS02004852 CONDUIT      7.20     0  02:14      0.30    0.01    0.03
  HS02004856HS02004862 CONDUIT     12.11     0  02:15      0.33    0.01    0.05
  HS02004852HS02004856 CONDUIT      7.15     0  02:16      0.11    0.01    0.09
  HS02004802HS02004478 CONDUIT     48.92     0  02:17      0.29    0.04    0.24
  HS02004478WS02006287 CONDUIT    184.66     0  02:14      1.26    0.05    0.16
  HS02004817HS02004807 CONDUIT     36.62     0  02:18      0.10    0.02    0.50
  HS02004807HS02004802 CONDUIT     48.67     0  02:16      0.24    0.09    0.29
  YS02001759YS02001757 CONDUIT    170.61     0  03:02      0.22    0.12    1.00
  YS02001762YS02001759 CONDUIT     91.13     0  03:04      0.17    0.10    1.00
  YS02001765YS02001762 CONDUIT     91.60     0  02:34      0.24    0.09    1.00
  YS02001770YS02001767 CONDUIT    109.77     0  03:06      0.29    0.43    1.00
  YS02001774YS02001770 CONDUIT     42.80     0  03:05      0.13    0.03    1.00
  YS02001779YS02001774 CONDUIT     40.10     0  03:05      0.07    0.02    1.00
  YS02001649YS02001757 CONDUIT    249.76     0  03:00      0.32    0.15    1.00
  YS02001767YS02001765 CONDUIT     94.90     0  02:39      0.26    0.12    1.00
  YS02006561YS02001783 CONDUIT    283.06     0  02:48      1.75    0.15    0.52
  YS02001783YS02001784 CONDUIT    351.86     0  02:39      1.22    0.49    0.79
  YS02001784YS02001785 CONDUIT    340.34     0  02:40      1.35    0.79    0.86
  YS02001788YS02001790 CONDUIT    448.69     0  02:46      1.83    0.33    0.96
  YS02001790YS02001791 CONDUIT    497.50     0  02:46      2.16    0.54    1.00
  YS02001791YS02001793 CONDUIT    538.65     0  02:47      4.27    0.23    1.00
  YS02001910YS02001907 CONDUIT     87.52     0  02:59      0.49    0.05    0.71
  YS02001786YS02001788 CONDUIT    381.39     0  02:46      1.87    0.73    0.87
  YS02001915YS02001910 CONDUIT     87.25     0  02:59      0.45    0.04    0.50
  YS02001918YS02001915 CONDUIT     29.84     0  03:03      0.44    0.02    0.24
  YS02001923YS02001920 CONDUIT     27.00     0  03:02      0.42    0.01    0.14
  YS02001926YS02001923 CONDUIT     26.96     0  03:01      0.47    0.04    0.13
  YS02001929YS02001926 CONDUIT     26.95     0  03:01      0.49    0.01    0.12
  YS02001920YS02001918 CONDUIT     29.86     0  03:02      0.44    0.03    0.14
  YS02001629YS02163301 CONDUIT     64.52     0  03:10      0.10    0.08    1.00
  YS02001619YS02001622 CONDUIT     70.83     0  03:06      0.61    0.10    1.00
  YS02001622YS02001625 CONDUIT     66.84     0  03:08      0.23    0.04    1.00
  YS02001625YS02001629 CONDUIT     74.59     0  03:07      0.23    0.04    1.00
  YS02163301YS02001633 CONDUIT     59.96     0  02:49      0.08    0.06    1.00
  YS02163601YS02164001 CONDUIT    118.81     0  03:03      0.15    0.11    1.00
  YS02164001YS02001641 CONDUIT    114.33     0  03:03      0.15    0.16    1.00
  YS02001641YS02001644 CONDUIT    112.75     0  03:04      0.14    0.36    1.00
  YS02001647YS02001649 CONDUIT    187.15     0  03:03      0.25    0.10    1.00
  YS02006553YS02006556 CONDUIT    192.75     0  02:50      0.29    0.16    0.80
  YS02006556YS02006558 CONDUIT    192.79     0  02:51      0.28    0.15    0.82
  YSB6556YSB1171       CONDUIT     11.66     0  02:15      0.05    0.01    0.56
  YS02001907YS02006553 CONDUIT    192.69     0  02:50      0.24    0.23    0.90
  YS02006558YS02006561 CONDUIT    283.06     0  02:48      2.24    0.63    0.46
  YS02001633YS02163601 CONDUIT    120.91     0  03:03      0.15    0.13    1.00
  YS02001644YS02001647 CONDUIT    176.57     0  02:56      0.24    0.10    1.00
  YS02001745YS02001748 CONDUIT     64.07     0  02:54      1.37    0.02    0.81
  YS02001748YS02001751 CONDUIT    106.13     0  03:01      1.06    0.05    1.00
  YS02001751YS02001754 CONDUIT     79.29     0  02:37      0.92    0.04    1.00
  YS02001754YS02001757 CONDUIT     88.82     0  03:00      0.33    0.04    1.00
  YS02001882YS02001884 CONDUIT      3.29     0  02:04      0.07    0.00    0.44
  YS02001884YS02001887 CONDUIT      9.72     0  02:07      0.05    0.01    0.53
  YS02001890YS02001895 CONDUIT    107.27     0  02:40      0.27    0.05    0.50
  YS02001895YS02001898 CONDUIT    107.05     0  02:42      0.44    0.19    0.37
  YS02001898YS02001901 CONDUIT    106.89     0  02:42      0.32    0.07    0.44
  YS02001901YS02001904 CONDUIT    106.64     0  02:44      0.28    0.17    0.50
  YS02001904YS02001907 CONDUIT    106.62     0  02:44      0.20    0.04    0.66
  YS02001887YS02001890 CONDUIT    107.54     0  02:39      0.23    0.18    0.59
  YS02001652YS02001649 CONDUIT     97.51     0  03:02      0.31    0.05    1.00
  YS02001655YS02001652 CONDUIT     86.87     0  03:00      0.96    0.04    1.00
  YS02001658YS02001655 CONDUIT    105.94     0  02:56      1.22    0.04    1.00
  YS02001661YS02001658 CONDUIT     76.55     0  02:38      1.41    0.03    0.84
  YS02001664YS02001661 CONDUIT     76.55     0  02:38      1.06    0.02    0.48
  YSB1154YSB6556       CONDUIT     11.52     0  02:13      0.19    0.02    0.45
  YSB1174YSB1171       CONDUIT     10.31     0  02:07      0.05    0.02    0.57
  YSB1171HS02004479    CONDUIT     21.24     0  02:15      0.54    0.01    0.43
  HS02004881HS02006253 CONDUIT     34.77     0  02:14      1.59    0.01    0.50
  YS02001793JiankangQianchi CONDUIT    591.23     0  02:50     12.97    0.05    1.00
  YS02001757CaochengTiaoxuchi CONDUIT    441.96     0  02:52      0.89    0.19    1.00
  WSF200WS02003060     CONDUIT    498.31     0  05:39      2.12    0.11    0.32
  1                    CONDUIT    881.51     0  06:46      3.22    0.31    0.38
  CC-Pump-1            PUMP       200.00     0  05:20              1.00
  CC-Pump-2            PUMP       200.00     0  06:00              1.00
  JK-Pump-1            PUMP       300.00     0  02:50              1.00
  JK-Pump-2            PUMP       683.00     0  02:50              1.00
  XR-Pump-1            PUMP        95.00     0  00:00              1.00
  XR-Pump-2            PUMP        95.00     0  00:00              1.00
  XR-Pump-3            PUMP        95.00     0  00:00              1.00
  XR-Pump-4            PUMP        95.00     0  00:00              1.00
  
  
  ***************************
  Flow Classification Summary
  ***************************
  
  -------------------------------------------------------------------------------------
                      Adjusted    ---------- Fraction of Time in Flow Class ---------- 
                       /Actual         Up    Down  Sub   Sup   Up    Down  Norm  Inlet 
  Conduit               Length    Dry  Dry   Dry   Crit  Crit  Crit  Crit  Ltd   Ctrl  
  -------------------------------------------------------------------------------------
  WS02003066WSF200        1.00   0.01  0.07  0.00  0.00  0.92  0.00  0.00  0.74  0.00
  WS02006287WS02006284    1.00   0.05  0.03  0.00  0.74  0.18  0.00  0.00  0.78  0.00
  WS02006284WS02006280    1.00   0.06  0.00  0.00  0.00  0.00  0.00  0.94  0.00  0.00
  WS02006280WS02006229    1.00   0.06  0.00  0.00  0.00  0.00  0.00  0.94  0.00  0.00
  WS02006229WS02006228    1.00   0.00  0.00  0.00  1.00  0.00  0.00  0.00  0.00  0.00
  WS02006256WS02006235    1.00   0.01  0.00  0.00  0.99  0.00  0.00  0.00  0.00  0.00
  WS02006253WS02006251    1.00   0.02  0.03  0.00  0.94  0.00  0.01  0.00  0.00  0.00
  WS02006252WS02006251    1.00   0.41  0.00  0.00  0.03  0.00  0.56  0.00  0.00  0.00
  WS02006251WS02006249    1.00   0.00  0.00  0.00  1.00  0.00  0.00  0.00  0.70  0.00
  WS02006249WS02006248    1.00   0.00  0.01  0.00  0.63  0.00  0.36  0.00  0.00  0.00
  WS02006248WS02006247    1.00   0.01  0.00  0.00  0.98  0.00  0.00  0.01  0.47  0.00
  WS02006247WS02006245    1.00   0.01  0.00  0.00  0.96  0.00  0.00  0.03  0.00  0.00
  WS02006245WS02006243    1.00   0.01  0.00  0.00  0.86  0.00  0.00  0.12  0.01  0.00
  WS02006243WS02006242    1.00   0.01  0.00  0.00  0.99  0.00  0.00  0.00  0.51  0.00
  WS02006242WS02006240    1.00   0.01  0.00  0.00  0.98  0.00  0.01  0.00  0.00  0.00
  WS02006240WS02006239    1.00   0.01  0.00  0.00  0.84  0.00  0.00  0.15  0.02  0.00
  WS02006239WS02006238    1.00   0.01  0.00  0.00  0.99  0.00  0.00  0.00  0.21  0.00
  WS02006238WS02006235    1.00   0.01  0.00  0.00  0.99  0.00  0.00  0.00  0.00  0.00
  WS02006235WS02006234    1.00   0.01  0.00  0.00  0.88  0.00  0.11  0.00  0.00  0.00
  WS02006234WS02006232    1.00   0.01  0.00  0.00  0.99  0.00  0.00  0.00  0.14  0.00
  WS02006232WS02006231    1.00   0.01  0.00  0.00  0.99  0.00  0.00  0.00  0.00  0.00
  WS02006231WS02006230    1.00   0.01  0.00  0.00  0.34  0.00  0.65  0.00  0.00  0.00
  WS02006230WS02006229    1.00   0.00  0.00  0.00  0.98  0.00  0.00  0.02  0.00  0.00
  WS02006228WS02006109    1.00   0.00  0.00  0.00  1.00  0.00  0.00  0.00  0.01  0.00
  WS02006116WS02004401    1.00   0.02  0.00  0.00  0.98  0.00  0.00  0.00  0.00  0.00
  WS02006115WS02006116    1.00   0.02  0.00  0.00  0.97  0.00  0.00  0.01  0.00  0.00
  WS02006113WS02006111    1.00   0.02  0.00  0.00  0.00  0.98  0.00  0.00  0.23  0.00
  WS02006112WS02006115    1.00   0.02  0.00  0.00  0.98  0.00  0.00  0.00  0.00  0.00
  WS02006111WS02006112    1.00   0.02  0.00  0.00  0.98  0.00  0.00  0.00  0.96  0.00
  WS02006110WS02006113    1.00   0.00  0.01  0.00  0.98  0.00  0.00  0.00  0.00  0.00
  WS02006109WS02006110    1.00   0.00  0.00  0.00  0.99  0.00  0.01  0.00  0.00  0.00
  WS02004411WS02004412    1.00   0.04  0.00  0.00  0.96  0.00  0.00  0.00  0.00  0.00
  WS02004401WS02004402    1.00   0.02  0.00  0.00  0.98  0.00  0.00  0.00  0.00  0.00
  WS02004413WS02003067    1.00   0.04  0.03  0.00  0.00  0.00  0.93  0.00  0.00  0.00
  WS02004412WS02004413    1.00   0.04  0.00  0.00  0.96  0.00  0.00  0.00  0.02  0.00
  WS02004410WS02004411    1.00   0.04  0.00  0.00  0.96  0.00  0.00  0.00  0.03  0.00
  WS02004409WS02004410    1.00   0.04  0.00  0.00  0.96  0.00  0.00  0.00  0.04  0.00
  WS02004407WS02004409    1.00   0.04  0.00  0.00  0.96  0.00  0.00  0.00  0.91  0.00
  WS02004406WS02004407    1.00   0.00  0.04  0.00  0.96  0.00  0.00  0.00  0.00  0.00
  WS02004405WS02004406    1.00   0.00  0.00  0.00  1.00  0.00  0.00  0.00  0.02  0.00
  WS02004404WS02004405    1.00   0.00  0.00  0.00  1.00  0.00  0.00  0.00  0.00  0.00
  WS02004403WS02004404    1.00   0.00  0.02  0.00  0.98  0.00  0.00  0.00  0.00  0.00
  WS02004402WS02004403    1.00   0.02  0.00  0.00  0.98  0.00  0.00  0.00  0.00  0.00
  WS02004139WS02001211    1.00   0.00  0.00  0.00  1.00  0.00  0.00  0.00  0.00  0.00
  WS02004138WS02004139    1.00   0.00  0.00  0.00  1.00  0.00  0.00  0.00  1.00  0.00
  WS02003067WS02003066    1.00   0.07  0.01  0.00  0.92  0.00  0.00  0.00  0.00  0.00
  WS02001213WS02003059    1.00   0.00  0.00  0.00  1.00  0.00  0.00  0.00  0.00  0.00
  WS02001212WS02001213    1.00   0.00  0.00  0.00  0.69  0.00  0.30  0.00  0.00  0.00
  WS02001211WS02001212    1.00   0.00  0.00  0.00  1.00  0.00  0.00  0.00  0.00  0.00
  WS02003072WS02003073    1.00   0.00  0.00  0.00  0.00  0.00  0.00  1.00  0.00  0.00
  WS02003069WS02003072    1.00   0.00  0.00  0.00  1.00  0.00  0.00  0.00  0.30  0.00
  WS02003060WS02003069    1.00   0.00  0.00  0.00  0.97  0.03  0.00  0.00  0.24  0.00
  WS02003059WS02003060    1.00   0.00  0.00  0.00  1.00  0.00  0.00  0.00  0.00  0.00
  HS02004901HS02004770    1.00   0.06  0.00  0.00  0.94  0.00  0.00  0.00  0.02  0.00
  HS02004876HS02004881    1.00   0.01  0.00  0.00  0.99  0.00  0.00  0.00  0.00  0.00
  HS02004870HS02004876    1.00   0.00  0.00  0.00  0.99  0.01  0.00  0.00  0.95  0.00
  HS02004842HS02004848    1.00   0.00  0.06  0.00  0.94  0.00  0.00  0.00  0.67  0.00
  HS02004837HS02004842    1.00   0.00  0.00  0.00  1.00  0.00  0.00  0.00  0.11  0.00
  HS02004830HS02004837    1.00   0.00  0.00  0.00  1.00  0.00  0.00  0.00  0.99  0.00
  HS02004824HS02004830    1.00   0.00  0.00  0.00  1.00  0.00  0.00  0.00  0.00  0.00
  HS02004817HS02004824    1.00   0.00  0.00  0.00  1.00  0.00  0.00  0.00  1.00  0.00
  HS02004770HS02004777    1.00   0.00  0.06  0.00  0.94  0.00  0.00  0.00  0.06  0.00
  HS02004799HS02004480    1.00   0.00  0.02  0.00  0.92  0.00  0.06  0.00  0.00  0.00
  HS02004792HS02004799    1.00   0.00  0.00  0.00  1.00  0.00  0.00  0.00  0.98  0.00
  HS02004788HS02004792    1.00   0.00  0.00  0.00  1.00  0.00  0.00  0.00  0.98  0.00
  HS02004785HS02004788    1.00   0.00  0.00  0.00  1.00  0.00  0.00  0.00  0.00  0.00
  HS02004777HS02004785    1.00   0.00  0.00  0.00  1.00  0.00  0.00  0.00  0.18  0.00
  HS02004480HS02004478    1.00   0.07  0.00  0.00  0.75  0.00  0.00  0.18  0.00  0.00
  HS02004479HS02004480    1.00   0.02  0.00  0.00  0.98  0.00  0.00  0.00  0.15  0.00
  HS02004862HS02004870    1.00   0.00  0.00  0.00  1.00  0.00  0.00  0.00  0.06  0.00
  HS02004848HS02004852    1.00   0.06  0.00  0.00  0.94  0.00  0.00  0.00  0.71  0.00
  HS02004856HS02004862    1.00   0.00  0.10  0.00  0.90  0.00  0.00  0.00  0.76  0.00
  HS02004852HS02004856    1.00   0.06  0.01  0.00  0.93  0.00  0.00  0.00  0.83  0.00
  HS02004802HS02004478    1.00   0.06  0.01  0.00  0.93  0.00  0.00  0.00  0.01  0.00
  HS02004478WS02006287    1.00   0.08  0.00  0.00  0.88  0.05  0.00  0.00  0.80  0.00
  HS02004817HS02004807    1.00   0.00  0.06  0.00  0.94  0.00  0.00  0.00  0.00  0.00
  HS02004807HS02004802    1.00   0.06  0.00  0.00  0.94  0.00  0.00  0.00  0.01  0.00
  YS02001759YS02001757    1.00   0.00  0.00  0.00  1.00  0.00  0.00  0.00  0.18  0.00
  YS02001762YS02001759    1.00   0.00  0.00  0.00  1.00  0.00  0.00  0.00  0.04  0.00
  YS02001765YS02001762    1.00   0.00  0.00  0.00  1.00  0.00  0.00  0.00  0.21  0.00
  YS02001770YS02001767    1.00   0.00  0.00  0.00  1.00  0.00  0.00  0.00  0.00  0.00
  YS02001774YS02001770    1.00   0.00  0.07  0.00  0.93  0.00  0.00  0.00  0.06  0.00
  YS02001779YS02001774    1.00   0.00  0.00  0.00  1.00  0.00  0.00  0.00  0.25  0.00
  YS02001649YS02001757    1.00   0.00  0.00  0.00  1.00  0.00  0.00  0.00  0.19  0.00
  YS02001767YS02001765    1.00   0.00  0.00  0.00  1.00  0.00  0.00  0.00  0.01  0.00
  YS02006561YS02001783    1.00   0.11  0.00  0.00  0.03  0.86  0.00  0.00  0.75  0.00
  YS02001783YS02001784    1.00   0.00  0.11  0.00  0.89  0.00  0.00  0.00  0.01  0.00
  YS02001784YS02001785    1.00   0.00  0.00  0.00  1.00  0.00  0.00  0.00  0.24  0.00
  YS02001788YS02001790    1.00   0.00  0.00  0.00  0.16  0.84  0.00  0.00  0.77  0.00
  YS02001790YS02001791    1.00   0.00  0.00  0.00  0.06  0.94  0.00  0.00  0.46  0.00
  YS02001791YS02001793    1.00   0.00  0.00  0.00  0.07  0.93  0.00  0.00  0.02  0.00
  YS02001910YS02001907    1.00   0.00  0.00  0.00  0.99  0.00  0.00  0.01  0.13  0.00
  YS02001786YS02001788    1.00   0.00  0.00  0.00  0.15  0.85  0.00  0.00  0.00  0.00
  YS02001915YS02001910    1.00   0.00  0.00  0.00  0.99  0.01  0.00  0.00  0.23  0.00
  YS02001918YS02001915    1.00   0.00  0.00  0.00  0.99  0.01  0.00  0.00  0.83  0.00
  YS02001923YS02001920    1.00   0.00  0.00  0.00  1.00  0.00  0.00  0.00  1.00  0.00
  YS02001926YS02001923    1.00   0.00  0.03  0.00  0.00  0.00  0.97  0.00  0.00  0.00
  YS02001929YS02001926    1.00   0.00  0.06  0.00  0.94  0.00  0.00  0.00  0.86  0.00
  YS02001920YS02001918    1.00   0.00  0.00  0.00  1.00  0.00  0.00  0.00  0.00  0.00
  YS02001629YS02163301    1.00   0.09  0.01  0.00  0.91  0.00  0.00  0.00  0.00  0.00
  YS02001619YS02001622    1.00   0.06  0.00  0.00  0.94  0.00  0.00  0.00  0.00  0.00
  YS02001622YS02001625    1.00   0.06  0.00  0.00  0.94  0.00  0.00  0.00  0.12  0.00
  YS02001625YS02001629    1.00   0.06  0.05  0.00  0.86  0.00  0.03  0.00  0.00  0.00
  YS02163301YS02001633    1.00   0.00  0.09  0.00  0.91  0.00  0.00  0.00  0.00  0.00
  YS02163601YS02164001    1.00   0.00  0.04  0.00  0.96  0.00  0.00  0.00  0.00  0.00
  YS02164001YS02001641    1.00   0.00  0.03  0.00  0.96  0.00  0.00  0.00  0.07  0.00
  YS02001641YS02001644    1.00   0.00  0.00  0.00  1.00  0.00  0.00  0.00  0.00  0.00
  YS02001647YS02001649    1.00   0.00  0.10  0.00  0.90  0.00  0.00  0.00  0.01  0.00
  YS02006553YS02006556    1.00   0.00  0.00  0.00  1.00  0.00  0.00  0.00  0.03  0.00
  YS02006556YS02006558    1.00   0.00  0.00  0.00  1.00  0.00  0.00  0.00  0.00  0.00
  YSB6556YSB1171          1.00   0.02  0.03  0.00  0.95  0.00  0.00  0.00  0.00  0.00
  YS02001907YS02006553    1.00   0.00  0.01  0.00  0.99  0.00  0.00  0.00  0.00  0.00
  YS02006558YS02006561    1.00   0.11  0.00  0.00  0.00  0.89  0.00  0.00  0.73  0.00
  YS02001633YS02163601    1.00   0.00  0.00  0.00  1.00  0.00  0.00  0.00  0.19  0.00
  YS02001644YS02001647    1.00   0.00  0.10  0.00  0.90  0.00  0.00  0.00  0.00  0.00
  YS02001745YS02001748    1.00   0.00  0.00  0.00  0.82  0.01  0.00  0.17  0.13  0.00
  YS02001748YS02001751    1.00   0.00  0.00  0.00  0.95  0.05  0.00  0.00  0.22  0.00
  YS02001751YS02001754    1.00   0.00  0.00  0.00  0.88  0.00  0.00  0.12  0.02  0.00
  YS02001754YS02001757    1.00   0.00  0.00  0.00  1.00  0.00  0.00  0.00  0.25  0.00
  YS02001882YS02001884    1.00   0.08  0.01  0.00  0.91  0.00  0.00  0.00  0.00  0.00
  YS02001884YS02001887    1.00   0.03  0.02  0.00  0.95  0.00  0.00  0.00  0.00  0.00
  YS02001890YS02001895    1.00   0.00  0.09  0.00  0.91  0.00  0.00  0.00  0.00  0.00
  YS02001895YS02001898    1.00   0.09  0.00  0.00  0.89  0.00  0.02  0.00  0.00  0.00
  YS02001898YS02001901    1.00   0.09  0.01  0.00  0.91  0.00  0.00  0.00  0.02  0.00
  YS02001901YS02001904    1.00   0.09  0.00  0.00  0.91  0.00  0.00  0.00  0.00  0.00
  YS02001904YS02001907    1.00   0.00  0.09  0.00  0.91  0.00  0.00  0.00  0.00  0.00
  YS02001887YS02001890    1.00   0.00  0.00  0.00  0.99  0.00  0.01  0.00  0.00  0.00
  YS02001652YS02001649    1.00   0.00  0.00  0.00  1.00  0.00  0.00  0.00  0.24  0.00
  YS02001655YS02001652    1.00   0.00  0.00  0.00  0.88  0.00  0.00  0.12  0.02  0.00
  YS02001658YS02001655    1.00   0.00  0.08  0.00  0.87  0.06  0.00  0.00  0.12  0.00
  YS02001661YS02001658    1.00   0.08  0.00  0.00  0.82  0.11  0.00  0.00  0.16  0.00
  YS02001664YS02001661    1.00   0.06  0.00  0.00  0.83  0.12  0.00  0.00  0.47  0.00
  YSB1154YSB6556          1.00   0.05  0.00  0.00  0.95  0.00  0.00  0.00  0.02  0.00
  YSB1174YSB1171          1.00   0.03  0.02  0.00  0.96  0.00  0.00  0.00  0.00  0.00
  YSB1171HS02004479       1.00   0.02  0.00  0.00  0.97  0.00  0.00  0.01  0.13  0.00
  HS02004881HS02006253    1.00   0.03  0.00  0.00  0.37  0.00  0.00  0.60  0.18  0.00
  YS02001793JiankangQianchi    1.00   0.00  0.00  0.00  0.68  0.32  0.00  0.00  0.66  0.00
  YS02001757CaochengTiaoxuchi    1.00   0.00  0.13  0.00  0.87  0.00  0.00  0.00  0.00  0.00
  WSF200WS02003060        1.00   0.00  0.01  0.00  0.85  0.14  0.00  0.00  0.77  0.00
  1                       1.00   0.00  0.00  0.00  0.00  1.00  0.00  0.00  0.51  0.00
  
  
  *************************
  Conduit Surcharge Summary
  *************************
  
  ----------------------------------------------------------------------------
                                                           Hours        Hours 
                         --------- Hours Full --------   Above Full   Capacity
  Conduit                Both Ends  Upstream  Dnstream   Normal Flow   Limited
  ----------------------------------------------------------------------------
  WS02006229WS02006228        0.64      0.69      0.64      1.52         0.64
  WS02006256WS02006235        3.63      3.64      6.14      2.51         0.01
  WS02006253WS02006251        0.45      0.45      0.46      0.01         0.01
  WS02006252WS02006251        0.51      0.51      0.78      0.71         0.01
  WS02006251WS02006249        0.45      0.45      0.47      0.40         0.29
  WS02006249WS02006248        0.45      0.45      0.47      1.03         0.01
  WS02006248WS02006247        0.47      0.47      0.52      0.01         0.01
  WS02006247WS02006245        0.50      0.53      0.50      1.42         0.50
  WS02006245WS02006243        0.51      0.51      0.53      0.34         0.33
  WS02006243WS02006242        0.55      0.55      0.66      0.01         0.01
  WS02006242WS02006240        0.58      0.58      0.71      0.75         0.01
  WS02006240WS02006239        0.59      0.60      0.60      0.48         0.39
  WS02006239WS02006238        0.67      0.68      0.69      0.51         0.43
  WS02006238WS02006235        0.66      0.66      0.74      0.01         0.01
  WS02006235WS02006234        0.54      0.54      0.64      3.47         0.01
  WS02006234WS02006232        0.59      0.59      0.74      0.18         0.18
  WS02006232WS02006231        0.28      0.28      0.74      0.26         0.01
  WS02006231WS02006230        0.07      0.07      0.30      3.87         0.01
  WS02006230WS02006229        0.86      1.36      0.86      4.46         0.86
  WS02006228WS02006109        0.66      0.77      0.66      2.45         0.66
  WS02006112WS02006115        0.01      0.01      0.16      0.01         0.01
  WS02006111WS02006112        0.01      0.01      1.63      0.01         0.01
  WS02006110WS02006113        0.01      0.01      0.72      0.01         0.01
  WS02006109WS02006110        0.15      0.15      0.78      0.16         0.01
  WS02004405WS02004406        0.01      0.01      0.01      0.05         0.01
  WS02004404WS02004405        0.01      0.01      0.01      4.44         0.01
  WS02003072WS02003073        0.01      0.01      0.01      3.93         0.01
  YS02001759YS02001757        5.09      5.09      5.33      0.01         0.01
  YS02001762YS02001759        4.98      4.98      5.09      0.01         0.01
  YS02001765YS02001762        4.80      4.80      4.98      0.01         0.01
  YS02001770YS02001767        4.67      4.67      4.69      0.01         0.10
  YS02001774YS02001770        4.59      4.59      4.90      0.01         0.01
  YS02001779YS02001774        4.14      4.14      4.90      0.01         0.01
  YS02001649YS02001757        5.01      5.01      5.33      0.01         0.01
  YS02001767YS02001765        4.69      4.69      4.80      0.01         0.01
  YS02001788YS02001790        0.01      0.01      0.32      0.01         0.01
  YS02001790YS02001791        0.32      0.32      0.42      0.01         0.01
  YS02001791YS02001793        0.42      0.42      0.62      0.01         0.01
  YS02001629YS02163301        4.53      4.53      4.62      0.01         0.01
  YS02001619YS02001622        3.42      3.42      3.50      0.01         0.01
  YS02001622YS02001625        3.50      3.50      4.38      0.01         0.01
  YS02001625YS02001629        3.42      3.42      4.38      0.01         0.01
  YS02163301YS02001633        4.62      4.62      4.82      0.01         0.01
  YS02163601YS02164001        4.80      4.80      5.00      0.01         0.01
  YS02164001YS02001641        4.80      4.80      4.87      0.01         0.01
  YS02001641YS02001644        4.87      4.87      4.88      0.01         0.18
  YS02001647YS02001649        4.35      4.35      5.01      0.01         0.01
  YS02001633YS02163601        4.75      4.75      5.00      0.01         0.01
  YS02001644YS02001647        4.35      4.35      4.88      0.01         0.01
  YS02001748YS02001751        1.19      1.19      3.57      0.01         0.01
  YS02001751YS02001754        3.57      3.57      4.22      0.01         0.01
  YS02001754YS02001757        4.35      4.35      5.33      0.01         0.01
  YS02001652YS02001649        4.39      4.39      5.01      0.01         0.01
  YS02001655YS02001652        3.67      3.67      4.31      0.01         0.01
  YS02001658YS02001655        0.16      0.16      3.67      0.01         0.01
  YS02001661YS02001658        0.01      0.01      0.16      0.01         0.01
  HS02004881HS02006253        0.01      0.01      0.23      0.01         0.01
  YS02001793JiankangQianchi        0.57      0.57      3.24      0.01         0.01
  YS02001757CaochengTiaoxuchi        2.04      2.04      5.33      0.01         0.01
  
  
  ***************
  Pumping Summary
  ***************
  
  ---------------------------------------------------------------------------------------------------------
                                                  Min       Avg       Max     Total     Power    % Time Off
                        Percent   Number of      Flow      Flow      Flow    Volume     Usage    Pump Curve
  Pump                 Utilized   Start-Ups       LPS       LPS       LPS  10^6 ltr     Kw-hr    Low   High
  ---------------------------------------------------------------------------------------------------------
  CC-Pump-1               27.65           3      0.00    125.53    200.00     0.960      1.65    0.0    0.0
  CC-Pump-2               17.02           2      0.00    111.91    200.00     0.600      1.14    0.0    0.0
  JK-Pump-1               38.29           6      0.00    149.89    300.00     1.503     28.23    0.0    0.0
  JK-Pump-2               31.91           6      0.00    191.55    683.00     1.810     32.17    0.0   95.8
  XR-Pump-1               91.49           3      0.00     87.81     95.00     2.280     47.63    0.0    0.0
  XR-Pump-2               87.24           5      0.00     85.90     95.00     2.052     42.78    0.0    0.0
  XR-Pump-3               78.72           6      0.00     84.80     95.00     1.824     37.56    0.0    0.0
  XR-Pump-4               78.72           6      0.00     84.80     95.00     1.824     37.56    0.0    0.0
  
  
  ***************************
  Link Pollutant Load Summary
  ***************************
  
  ------------------------------------------------------------------------------------------
                                 COD            SS            TN            TP         NH4-N
  Link                            kg            kg            kg            kg            kg
  ------------------------------------------------------------------------------------------
  WS02003066WSF200           244.251       405.982        10.318         1.079         5.911
  WS02006287WS02006284       101.878       172.383         6.167         0.717         3.706
  WS02006284WS02006280       102.303       173.066         6.207         0.722         3.731
  WS02006280WS02006229       102.285       173.036         6.206         0.722         3.730
  WS02006229WS02006228       249.039       413.414        10.215         1.055         5.823
  WS02006256WS02006235        55.386        90.221         1.838         0.173         1.012
  WS02006253WS02006251        16.664        28.949         0.538         0.049         0.291
  WS02006252WS02006251        83.675       135.820         1.885         0.132         0.920
  WS02006251WS02006249        95.397       156.764         2.317         0.175         1.161
  WS02006249WS02006248        93.777       154.119         2.279         0.172         1.142
  WS02006248WS02006247        94.001       154.499         2.284         0.172         1.144
  WS02006247WS02006245        94.029       154.550         2.284         0.172         1.144
  WS02006245WS02006243        93.923       154.413         2.271         0.171         1.136
  WS02006243WS02006242        95.383       156.877         2.309         0.174         1.156
  WS02006242WS02006240        97.916       161.067         2.388         0.181         1.199
  WS02006240WS02006239       100.854       165.835         2.484         0.190         1.252
  WS02006239WS02006238       104.455       171.581         2.616         0.203         1.326
  WS02006238WS02006235       106.591       174.973         2.689         0.210         1.367
  WS02006235WS02006234       148.457       243.176         4.077         0.340         2.131
  WS02006234WS02006232       148.575       243.360         4.087         0.342         2.137
  WS02006232WS02006231       148.229       242.795         4.076         0.341         2.132
  WS02006231WS02006230       147.846       242.176         4.061         0.339         2.123
  WS02006230WS02006229       147.562       241.696         4.055         0.339         2.120
  WS02006228WS02006109       248.408       412.401        10.185         1.052         5.805
  WS02006116WS02004401       254.063       421.759        10.788         1.129         6.185
  WS02006115WS02006116       254.932       423.148        10.827         1.133         6.208
  WS02006113WS02006111       255.001       422.936        10.888         1.141         6.248
  WS02006112WS02006115       255.827       424.596        10.879         1.139         6.239
  WS02006111WS02006112       254.613       422.316        10.871         1.139         6.238
  WS02006110WS02006113       255.382       423.555        10.913         1.144         6.263
  WS02006109WS02006110       256.391       425.179        10.980         1.152         6.303
  WS02004411WS02004412       247.156       410.705        10.467         1.095         5.999
  WS02004401WS02004402       253.018       420.076        10.728         1.123         6.150
  WS02004413WS02003067       244.712       406.704        10.337         1.080         5.922
  WS02004412WS02004413       246.087       408.983        10.415         1.089         5.969
  WS02004410WS02004411       247.896       411.890        10.503         1.099         6.020
  WS02004409WS02004410       248.638       413.085        10.542         1.103         6.043
  WS02004407WS02004409       249.090       413.797        10.563         1.106         6.056
  WS02004406WS02004407       249.071       413.744        10.559         1.105         6.053
  WS02004405WS02004406       250.635       416.271        10.654         1.116         6.110
  WS02004404WS02004405       251.518       417.662        10.685         1.119         6.127
  WS02004403WS02004404       251.059       416.932        10.616         1.110         6.083
  WS02004402WS02004403       252.049       418.526        10.676         1.117         6.119
  WS02004139WS02001211      1313.803      2104.176       123.845        15.432        77.258
  WS02004138WS02004139      1309.147      2096.722       123.403        15.377        76.982
  WS02003067WS02003066       244.364       406.168        10.324         1.079         5.915
  WS02001213WS02003059      1365.691      2187.201       128.805        16.052        80.357
  WS02001212WS02001213      1364.427      2185.175       128.703        16.039        80.294
  WS02001211WS02001212      1365.407      2186.743       128.797        16.051        80.352
  WS02003072WS02003073      1721.353      2771.427       149.904        18.479        93.010
  WS02003069WS02003072      1723.740      2775.278       150.101        18.504        93.132
  WS02003060WS02003069      1722.398      2773.135       149.953        18.485        93.039
  WS02003059WS02003060      1366.443      2188.390       128.835        16.055        80.374
  HS02004901HS02004770         2.265         4.036         0.044         0.003         0.020
  HS02004876HS02004881         9.200        16.515         0.288         0.026         0.154
  HS02004870HS02004876         7.173        12.801         0.257         0.024         0.141
  HS02004842HS02004848         1.272         2.198         0.029         0.002         0.013
  HS02004837HS02004842         5.911         9.594         0.496         0.061         0.306
  HS02004830HS02004837        48.031        77.914         4.222         0.522         2.624
  HS02004824HS02004830        48.781        79.115         4.294         0.531         2.669
  HS02004817HS02004824        53.742        87.973         4.426         0.541         2.737
  HS02004770HS02004777         8.815        15.846         0.195         0.013         0.088
  HS02004799HS02004480        40.214        68.878         1.905         0.208         1.102
  HS02004792HS02004799        37.763        64.154         1.906         0.212         1.112
  HS02004788HS02004792        25.325        42.867         1.518         0.174         0.904
  HS02004785HS02004788        10.309        18.248         0.347         0.032         0.184
  HS02004777HS02004785         9.799        17.426         0.300         0.026         0.155
  HS02004480HS02004478        47.380        82.144         1.982         0.211         1.131
  HS02004479HS02004480        11.570        20.291         0.497         0.055         0.290
  HS02004862HS02004870         5.419         9.459         0.221         0.022         0.124
  HS02004848HS02004852         1.418         2.469         0.032         0.002         0.014
  HS02004856HS02004862         2.819         5.114         0.060         0.004         0.028
  HS02004852HS02004856         1.415         2.463         0.032         0.002         0.014
  HS02004802HS02004478        54.800        90.729         4.213         0.510         2.593
  HS02004478WS02006287       102.057       172.674         6.183         0.719         3.716
  HS02004817HS02004807        52.364        85.770         4.295         0.525         2.656
  HS02004807HS02004802        55.505        91.854         4.281         0.518         2.635
  YS02001759YS02001757        83.035       135.973         2.021         0.149         1.026
  YS02001762YS02001759        44.532        73.581         1.237         0.098         0.647
  YS02001765YS02001762        44.217        72.981         1.257         0.101         0.661
  YS02001770YS02001767        42.006        69.351         0.970         0.063         0.477
  YS02001774YS02001770         3.852         6.412         0.096         0.007         0.049
  YS02001779YS02001774         2.966         4.879         0.138         0.014         0.080
  YS02001649YS02001757       120.964       191.887         2.723         0.197         1.311
  YS02001767YS02001765        44.404        73.232         1.277         0.103         0.673
  YS02006561YS02001783       183.883       299.478         5.707         0.518         3.098
  YS02001783YS02001784       183.817       299.383         5.704         0.517         3.096
  YS02001784YS02001785       191.199       311.210         6.417         0.607         3.542
  YS02001788YS02001790       191.894       312.341         6.491         0.616         3.588
  YS02001790YS02001791       192.939       314.025         6.591         0.629         3.651
  YS02001791YS02001793       192.889       313.949         6.587         0.628         3.648
  YS02001910YS02001907        67.767       108.975         3.093         0.317         1.783
  YS02001786YS02001788       191.443       311.612         6.445         0.610         3.560
  YS02001915YS02001910        67.656       108.741         3.051         0.311         1.755
  YS02001918YS02001915        38.399        60.161         2.368         0.274         1.428
  YS02001923YS02001920        18.370        28.105         0.431         0.032         0.217
  YS02001926YS02001923        17.994        27.499         0.392         0.027         0.192
  YS02001929YS02001926        17.703        27.024         0.360         0.023         0.172
  YS02001920YS02001918        38.314        60.024         2.349         0.271         1.416
  YS02001629YS02163301        20.366        32.485         0.472         0.029         0.218
  YS02001619YS02001622        23.281        36.888         0.542         0.033         0.249
  YS02001622YS02001625        22.368        35.545         0.519         0.032         0.238
  YS02001625YS02001629        21.315        33.989         0.493         0.030         0.227
  YS02163301YS02001633        20.152        32.161         0.467         0.029         0.216
  YS02163601YS02164001        58.107        91.855         1.358         0.099         0.665
  YS02164001YS02001641        57.623        91.091         1.335         0.097         0.652
  YS02001641YS02001644        57.916        91.572         1.331         0.096         0.649
  YS02001647YS02001649        92.468       145.727         2.010         0.143         0.970
  YS02006553YS02006556       135.034       219.336         4.523         0.430         2.504
  YS02006556YS02006558       134.994       219.255         4.492         0.425         2.483
  YSB6556YSB1171               5.718        10.142         0.185         0.019         0.104
  YS02001907YS02006553       134.958       219.223         4.518         0.429         2.501
  YS02006558YS02006561       183.887       299.476         5.707         0.518         3.097
  YS02001633YS02163601        58.711        92.729         1.341         0.096         0.651
  YS02001644YS02001647        93.291       146.929         2.029         0.145         0.979
  YS02001745YS02001748        32.512        52.784         0.719         0.040         0.343
  YS02001748YS02001751        32.199        52.364         0.733         0.043         0.354
  YS02001751YS02001754        31.446        51.227         0.719         0.043         0.348
  YS02001754YS02001757        32.400        52.781         0.887         0.066         0.457
  YS02001882YS02001884         0.435         0.675         0.014         0.001         0.008
  YS02001884YS02001887         1.687         2.704         0.049         0.005         0.026
  YS02001890YS02001895        68.212       111.703         1.453         0.114         0.733
  YS02001895YS02001898        68.085       111.522         1.447         0.114         0.729
  YS02001898YS02001901        67.981       111.376         1.444         0.113         0.728
  YS02001901YS02001904        68.059       111.535         1.465         0.116         0.741
  YS02001904YS02001907        68.859       112.860         1.560         0.128         0.801
  YS02001887YS02001890        69.051       113.000         1.517         0.122         0.772
  YS02001652YS02001649        30.353        48.996         0.743         0.055         0.352
  YS02001655YS02001652        31.262        50.387         0.769         0.057         0.365
  YS02001658YS02001655        31.004        49.873         0.692         0.046         0.313
  YS02001661YS02001658        31.499        50.550         0.706         0.047         0.319
  YS02001664YS02001661        31.696        50.773         0.712         0.047         0.322
  YSB1154YSB6556               5.205         9.326         0.122         0.011         0.064
  YSB1174YSB1171               3.974         7.147         0.129         0.013         0.072
  YSB1171HS02004479           11.461        20.128         0.485         0.053         0.283
  HS02004881HS02006253        10.328        18.629         0.308         0.027         0.164
  YS02001793JiankangQianchi       193.183       314.438         6.606         0.630         3.660
  YS02001757CaochengTiaoxuchi       230.077       371.224         5.266         0.372         2.578
  WSF200WS02003060           244.333       406.145        10.326         1.080         5.917
  1                         1735.296      2793.813       151.224        18.644        93.834
  CC-Pump-1                   51.324        83.277         1.155         0.081         0.563
  CC-Pump-2                   32.255        52.390         0.723         0.051         0.353
  JK-Pump-1                   48.894        79.808         1.573         0.146         0.861
  JK-Pump-2                   74.090       121.767         2.380         0.222         1.304
  XR-Pump-1                  389.028       622.990        36.748         4.581        22.929
  XR-Pump-2                  334.801       536.227        31.542         3.930        19.675
  XR-Pump-3                  292.343       468.245        27.528         3.430        17.171
  XR-Pump-4                  292.343       468.245        27.528         3.430        17.171
  

  Analysis begun on:  Sun Jul 11 00:08:35 2021
  Analysis ended on:  Sun Jul 11 00:08:37 2021
  Total elapsed time: 00:00:02