
  EPA STORM WATER MANAGEMENT MODEL - VERSION 5.1 (Build 5.3.0.dev0)
  --------------------------------------------------------------

  WARNING 04: minimum elevation drop used for Conduit WS02004404WS02004405
  WARNING 03: negative offset ignored for Link YS02001904YS02001907
  
  *********************************************************
  NOTE: The summary statistics displayed in this report are
  based on results found at every computational time step,  
  not just on results from each reporting time step.
  *********************************************************
  
  ****************
  Analysis Options
  ****************
  Flow Units ............... LPS
  Process Models:
    Rainfall/Runoff ........ YES
    RDII ................... NO
    Snowmelt ............... NO
    Groundwater ............ NO
    Flow Routing ........... YES
    Ponding Allowed ........ NO
    Water Quality .......... YES
  Infiltration Method ...... HORTON
  Flow Routing Method ...... DYNWAVE
  Surcharge Method ......... EXTRAN
  Starting Date ............ 08/28/2015 08:00:00
  Ending Date .............. 08/28/2015 15:50:00
  Antecedent Dry Days ...... 8.0
  Report Time Step ......... 00:01:00
  Wet Time Step ............ 00:01:00
  Dry Time Step ............ 00:01:00
  Routing Time Step ........ 5.00 sec
  Variable Time Step ....... YES
  Maximum Trials ........... 8
  Number of Threads ........ 4
  Head Tolerance ........... 0.001500 m
  
  
  **************************        Volume         Depth
  Runoff Quantity Continuity     hectare-m            mm
  **************************     ---------       -------
  Total Precipitation ......         1.673         3.664
  Evaporation Loss .........         0.000         0.000
  Infiltration Loss ........         0.403         0.882
  Surface Runoff ...........         0.876         1.918
  Final Storage ............         0.395         0.864
  Continuity Error (%) .....        -0.023
  
  
  **************************           COD            SS            TN            TP         NH4-N
  Runoff Quality Continuity             kg            kg            kg            kg            kg
  **************************    ----------    ----------    ----------    ----------    ----------
  Initial Buildup ..........     41378.656     70582.865      1804.177       168.684      1032.807
  Surface Buildup ..........        13.131        14.061         3.153         0.293         1.871
  Wet Deposition ...........         0.000         0.000         0.000         0.000         0.000
  Sweeping Removal .........         0.000         0.000         0.000         0.000         0.000
  Infiltration Loss ........        14.079        23.306         0.296         0.019         0.137
  BMP Removal ..............         0.000         0.000         0.000         0.000         0.000
  Surface Runoff ...........       407.151       656.614         8.621         0.543         4.045
  Remaining Buildup ........     40970.430     69916.807      1798.410       168.414      1030.495
  Continuity Error (%) .....         0.000         0.000         0.000         0.000         0.000
  
  
  **************************        Volume        Volume
  Flow Routing Continuity        hectare-m      10^6 ltr
  **************************     ---------     ---------
  Dry Weather Inflow .......         0.616         6.165
  Wet Weather Inflow .......         0.876         8.758
  Groundwater Inflow .......         0.000         0.000
  RDII Inflow ..............         0.000         0.000
  External Inflow ..........         0.102         1.024
  External Outflow .........         1.091        10.908
  Flooding Loss ............         0.126         1.265
  Evaporation Loss .........         0.000         0.000
  Exfiltration Loss ........         0.000         0.000
  Initial Stored Volume ....         0.076         0.761
  Final Stored Volume ......         0.530         5.295
  Continuity Error (%) .....        -4.557
  
  
  **************************           COD            SS            TN            TP         NH4-N
  Quality Routing Continuity            kg            kg            kg            kg            kg
  **************************    ----------    ----------    ----------    ----------    ----------
  Dry Weather Inflow .......      1541.201      2465.922       147.955        18.494        92.472
  Wet Weather Inflow .......       406.999       656.390         8.617         0.543         4.043
  Groundwater Inflow .......         0.000         0.000         0.000         0.000         0.000
  RDII Inflow ..............         0.000         0.000         0.000         0.000         0.000
  External Inflow ..........       183.418       293.469        17.608         2.201        11.005
  External Outflow .........      1532.341      2461.488       136.786        16.921        85.024
  Flooding Loss ............        68.050       110.227         2.370         0.228         1.317
  Exfiltration Loss ........         0.000         0.000         0.000         0.000         0.000
  Mass Reacted .............         0.000         0.000         0.000         0.000         0.000
  Initial Stored Mass ......         0.000         0.000         0.000         0.000         0.000
  Final Stored Mass ........       410.002       650.788        25.809         2.981        15.523
  Continuity Error (%) .....         5.687         5.658         5.291         5.221         5.261
  
  
  *************************
  Highest Continuity Errors
  *************************
  Node YS02001774 (37.32%)
  Node HS02004842 (32.01%)
  Node YS02001884 (27.12%)
  Node JK-storage (-22.81%)
  Node YSB1171 (8.59%)
  
  
  ***************************
  Time-Step Critical Elements
  ***************************
  Link WS02006252WS02006251 (44.95%)
  Link WS02006280WS02006229 (16.72%)
  Link YS02001793JiankangQianchi (14.32%)
  Link WS02006238WS02006235 (9.37%)
  Link YS02001791YS02001793 (2.48%)
  
  
  ********************************
  Highest Flow Instability Indexes
  ********************************
  Link WS02006113WS02006111 (51)
  Link YS02164001YS02001641 (10)
  Link YS02001641YS02001644 (10)
  Link YS02001629YS02163301 (9)
  Link YS02163601YS02164001 (9)
  
  
  *************************
  Routing Time Step Summary
  *************************
  Minimum Time Step           :     0.50 sec
  Average Time Step           :     2.09 sec
  Maximum Time Step           :     5.00 sec
  Percent in Steady State     :    -0.00
  Average Iterations per Step :     2.46
  Percent Not Converging      :     1.71
  
  
  ***************************
  Subcatchment Runoff Summary
  ***************************
  
  ------------------------------------------------------------------------------------------------------------------------------
                            Total      Total      Total      Total     Imperv       Perv      Total       Total     Peak  Runoff
                           Precip      Runon       Evap      Infil     Runoff     Runoff     Runoff      Runoff   Runoff   Coeff
  Subcatchment                 mm         mm         mm         mm         mm         mm         mm    10^6 ltr      LPS
  ------------------------------------------------------------------------------------------------------------------------------
  sub0                       3.66       0.00       0.00       0.26       3.36       0.00       3.36        0.00     1.01   0.918
  sub1                       3.66       0.00       0.00       0.40       3.18       0.00       3.18        0.02     5.62   0.867
  sub2                       3.66       0.00       0.00       1.36       2.23       0.00       2.23        0.02     4.97   0.609
  sub3                       3.66       0.00       0.00       1.36       2.20       0.00       2.20        0.05    10.20   0.600
  sub4                       3.66       0.00       0.00       0.40       3.05       0.00       3.05        0.06    11.35   0.831
  sub5                       3.66       0.00       0.00       0.26       3.32       0.00       3.32        0.04     9.99   0.906
  sub7                       3.66       0.00       0.00       0.33       3.27       0.00       3.27        0.01     3.47   0.894
  sub8                       3.66       0.00       0.00       0.33       3.27       0.00       3.27        0.02     6.17   0.891
  sub9                       3.66       0.00       0.00       0.33       3.26       0.00       3.26        0.02     4.58   0.891
  sub10                      3.66       0.00       0.00       0.29       3.29       0.00       3.29        0.04     9.95   0.898
  sub11                      3.66       0.00       0.00       0.29       3.30       0.00       3.30        0.04    11.59   0.902
  sub12                      3.66       0.00       0.00       0.48       3.14       0.00       3.14        0.03     9.56   0.857
  sub14                      3.66       0.00       0.00       0.33       3.26       0.00       3.26        0.03     8.96   0.890
  sub15                      3.66       0.00       0.00       1.10       2.51       0.00       2.51        0.04    12.18   0.684
  sub16                      3.66       0.00       0.00       1.21       2.42       0.00       2.42        0.03     8.48   0.659
  sub17                      3.66       0.00       0.00       1.17       2.45       0.00       2.45        0.02     6.88   0.669
  sub22                      3.66       0.00       0.00       1.58       2.05       0.00       2.05        0.13    39.58   0.559
  sub23                      3.66       0.00       0.00       1.36       2.27       0.00       2.27        0.11    33.62   0.618
  sub60                      3.66       0.00       0.00       0.44       2.09       0.00       2.09        0.63    53.24   0.570
  sub61                      3.66       0.00       0.00       0.62       2.27       0.00       2.27        0.70    68.27   0.619
  sub62                      3.66       0.00       0.00       0.29       2.42       0.00       2.42        0.74    69.32   0.661
  sub63                      3.66       0.00       0.00       1.06       2.03       0.00       2.03        0.62    64.29   0.555
  sub64                      3.66       0.00       0.00       0.55       1.99       0.00       1.99        0.61    50.49   0.544
  sub65                      3.66       0.00       0.00       0.48       2.02       0.00       2.02        0.62    51.16   0.551
  sub66                      3.66       0.00       0.00       1.06       1.75       0.00       1.75        0.54    46.58   0.478
  sub67                      3.66       0.00       0.00       0.29       2.70       0.00       2.70        0.83    90.84   0.737
  sub68                      3.66       0.00       0.00       0.51       2.42       0.00       2.42        0.75    75.92   0.661
  sub69                      3.66       0.00       0.00       0.55       2.65       0.00       2.65        0.62    77.18   0.724
  sub70                      3.66       2.71       0.00       2.17       3.16       0.00       3.16        0.72    58.98   0.497
  sub71                      3.66       0.00       0.00       0.29       2.30       0.00       2.30        0.54    48.00   0.629
  sub72                      3.66       0.00       0.00       0.26       1.57       0.00       1.57        0.32    22.18   0.429
  1                          3.66       3.08       0.00       1.30       3.15       0.29       3.44        0.81    54.15   0.511
  2                          3.66       0.00       0.00       2.67       0.80       0.08       0.88        0.35    46.51   0.240
  
  
  ****************************
  Subcatchment Washoff Summary
  ****************************
  
  ------------------------------------------------------------------------------------------
                                 COD            SS            TN            TP         NH4-N
  Subcatchment                    kg            kg            kg            kg            kg
  ------------------------------------------------------------------------------------------
  sub0                         0.439         0.785         0.007         0.001         0.003
  sub1                         1.764         3.172         0.034         0.002         0.016
  sub2                         1.006         1.740         0.024         0.002         0.011
  sub3                         2.392         4.066         0.055         0.004         0.025
  sub4                         3.800         6.735         0.081         0.005         0.039
  sub5                         4.012         7.123         0.071         0.005         0.034
  sub7                         0.958         1.766         0.018         0.001         0.009
  sub8                         1.460         2.740         0.031         0.002         0.015
  sub9                         1.223         2.264         0.025         0.001         0.012
  sub10                        3.375         6.080         0.063         0.004         0.030
  sub11                        3.409         6.248         0.065         0.004         0.031
  sub12                        2.855         5.160         0.052         0.004         0.025
  sub14                        2.575         4.720         0.050         0.003         0.024
  sub15                        2.963         5.167         0.060         0.004         0.028
  sub16                        1.911         3.347         0.038         0.003         0.017
  sub17                        1.733         3.004         0.033         0.003         0.015
  sub22                        8.729        14.909         0.176         0.013         0.080
  sub23                        5.527         9.824         0.129         0.008         0.058
  sub60                       26.037        41.518         0.584         0.032         0.278
  sub61                       33.498        53.294         0.676         0.042         0.323
  sub62                       35.536        57.599         0.769         0.044         0.367
  sub63                       25.508        40.215         0.584         0.038         0.263
  sub64                       30.035        46.054         0.599         0.041         0.282
  sub65                       30.809        47.448         0.620         0.041         0.293
  sub66                       18.768        29.200         0.447         0.027         0.204
  sub67                       53.540        86.200         0.999         0.069         0.480
  sub68                       38.195        61.595         0.802         0.050         0.379
  sub69                       36.662        60.199         0.738         0.048         0.349
  sub70                       52.528        86.127         1.166         0.075         0.533
  sub71                       23.588        38.525         0.550         0.029         0.262
  sub72                       13.880        20.832         0.286         0.018         0.137
  1                           23.452        38.762         0.546         0.035         0.244
  2                            4.174         6.521         0.148         0.009         0.061
  ------------------------------------------------------------------------------------------
  System                     496.342       802.940        10.525         0.667         4.927
  
  
  ******************
  Node Depth Summary
  ******************
  
  ---------------------------------------------------------------------------------
                                 Average  Maximum  Maximum  Time of Max    Reported
                                   Depth    Depth      HGL   Occurrence   Max Depth
  Node                 Type       Meters   Meters   Meters  days hr:min      Meters
  ---------------------------------------------------------------------------------
  WS02001211           JUNCTION     0.62     0.77     5.61     0  04:01        0.77
  WS02001212           JUNCTION     0.35     0.48     5.54     0  04:00        0.48
  WS02001213           JUNCTION     0.57     0.71     5.47     0  04:00        0.71
  WS02003069           JUNCTION     0.36     0.49     5.07     0  03:58        0.49
  WS02003072           JUNCTION     0.42     0.55     4.93     0  03:59        0.55
  WS02003073           JUNCTION     0.25     0.34     4.40     0  04:00        0.34
  WS02003060           JUNCTION     0.32     0.43     5.37     0  03:58        0.43
  WS02003066           JUNCTION     0.17     0.25     5.81     0  02:53        0.25
  WS02003059           JUNCTION     0.63     0.76     5.44     0  03:59        0.76
  WS02003067           JUNCTION     0.44     0.62     5.94     0  02:53        0.62
  WS02004401           JUNCTION     0.50     0.71     6.71     0  02:49        0.71
  WS02004402           JUNCTION     0.54     0.74     6.70     0  02:50        0.74
  WS02004403           JUNCTION     0.56     0.77     6.70     0  02:50        0.77
  WS02004404           JUNCTION     0.64     0.84     6.69     0  02:50        0.84
  WS02004406           JUNCTION     0.65     0.85     6.68     0  02:50        0.85
  WS02004409           JUNCTION     0.32     0.53     6.30     0  02:51        0.53
  WS02004410           JUNCTION     0.34     0.55     6.27     0  02:52        0.55
  WS02004411           JUNCTION     0.36     0.57     6.25     0  02:52        0.57
  WS02004412           JUNCTION     0.39     0.58     6.22     0  02:52        0.58
  WS02004413           JUNCTION     0.54     0.75     6.22     0  02:53        0.75
  WS02004405           JUNCTION     0.64     0.84     6.69     0  02:50        0.84
  WS02006109           JUNCTION     0.57     0.79     7.41     0  02:47        0.79
  WS02006110           JUNCTION     0.58     0.78     7.37     0  02:45        0.78
  WS02006111           JUNCTION     0.15     0.23     6.94     0  02:46        0.23
  WS02006112           JUNCTION     0.65     0.89     6.77     0  02:49        0.89
  WS02006113           JUNCTION     0.22     0.36     7.26     0  02:47        0.36
  WS02006115           JUNCTION     0.39     0.60     6.74     0  02:49        0.60
  WS02006116           JUNCTION     0.47     0.68     6.72     0  02:49        0.68
  WS02006230           JUNCTION     0.48     0.76     7.50     0  07:04        0.76
  WS02006231           JUNCTION     0.29     0.52     7.64     0  07:03        0.52
  WS02006232           JUNCTION     0.40     0.67     7.71     0  07:04        0.67
  WS02006234           JUNCTION     0.30     0.60     7.75     0  07:03        0.59
  WS02006235           JUNCTION     0.33     0.63     7.80     0  07:03        0.63
  WS02006238           JUNCTION     0.36     0.66     7.80     0  07:03        0.65
  WS02006240           JUNCTION     0.26     0.55     7.85     0  05:54        0.55
  WS02006242           JUNCTION     0.31     0.64     7.91     0  05:53        0.64
  WS02006243           JUNCTION     0.20     0.53     7.95     0  05:53        0.53
  WS02006245           JUNCTION     0.19     0.53     8.02     0  05:51        0.53
  WS02006247           JUNCTION     0.21     0.57     8.07     0  05:51        0.56
  WS02006248           JUNCTION     0.16     0.52     8.11     0  05:51        0.52
  WS02006249           JUNCTION     0.19     0.57     8.17     0  05:51        0.57
  WS02006239           JUNCTION     0.31     0.60     7.81     0  07:03        0.60
  WS02006251           JUNCTION     0.18     0.58     8.25     0  05:50        0.58
  WS02006252           JUNCTION     0.14     0.59     8.83     0  05:50        0.58
  WS02006253           JUNCTION     0.21     0.61     8.25     0  05:50        0.60
  WS02006256           JUNCTION     0.97     2.35     9.28     0  00:42        2.35
  WS02004138           JUNCTION     0.13     0.20     7.45     0  00:00        0.19
  WS02004139           JUNCTION     0.56     0.72     5.63     0  04:02        0.72
  WS02004407           JUNCTION     0.14     0.24     6.55     0  02:51        0.24
  WS02006228           JUNCTION     0.55     0.78     7.43     0  02:45        0.78
  WS02006229           JUNCTION     0.51     0.76     7.45     0  02:45        0.76
  WS02006280           JUNCTION     0.05     0.13     8.40     0  02:15        0.13
  WS02006284           JUNCTION     0.33     0.46     8.85     0  02:15        0.46
  WS02006287           JUNCTION     0.06     0.18     9.14     0  02:15        0.18
  WSF200               JUNCTION     0.14     0.24     5.47     0  02:53        0.24
  HS02004901           JUNCTION     0.10     0.21    10.03     0  02:13        0.21
  HS02004881           JUNCTION     0.00     0.02     9.05     0  02:14        0.02
  HS02004876           JUNCTION     0.03     0.09     9.12     0  02:14        0.09
  HS02004870           JUNCTION     0.01     0.03     9.32     0  02:15        0.03
  HS02004862           JUNCTION     0.01     0.04     9.42     0  02:16        0.04
  HS02004856           JUNCTION     0.07     0.10     9.52     0  02:15        0.10
  HS02004852           JUNCTION     0.00     0.02     9.53     0  02:16        0.02
  HS02004848           JUNCTION     0.00     0.02     9.62     0  02:13        0.02
  HS02004842           JUNCTION     0.33     0.35     9.62     0  02:13        0.35
  HS02004837           JUNCTION     0.02     0.04     9.62     0  02:13        0.04
  HS02004830           JUNCTION     0.03     0.06     9.52     0  02:14        0.06
  HS02004824           JUNCTION     0.02     0.03     9.44     0  02:17        0.03
  HS02004817           JUNCTION     0.41     0.50     9.35     0  02:15        0.50
  HS02004807           JUNCTION     0.10     0.18     9.35     0  02:15        0.18
  HS02004802           JUNCTION     0.14     0.22     9.35     0  02:15        0.22
  HS02004799           JUNCTION     0.09     0.22     9.44     0  02:13        0.22
  HS02004792           JUNCTION     0.02     0.08     9.60     0  02:12        0.08
  HS02004788           JUNCTION     0.01     0.06     9.96     0  02:14        0.06
  HS02004785           JUNCTION     0.03     0.12    10.02     0  02:13        0.12
  HS02004777           JUNCTION     0.12     0.23    10.03     0  02:13        0.23
  HS02004770           JUNCTION     0.09     0.20    10.03     0  02:13        0.20
  HS02004480           JUNCTION     0.05     0.17     9.41     0  02:14        0.17
  HS02004479           JUNCTION     0.09     0.21     9.41     0  02:13        0.21
  HS02004478           JUNCTION     0.04     0.11     9.34     0  02:15        0.11
  YS02001745           JUNCTION     0.33     0.54     8.05     0  07:48        0.54
  YS02001748           JUNCTION     0.65     0.98     8.05     0  07:50        0.98
  YS02001751           JUNCTION     0.82     1.18     8.05     0  07:49        1.17
  YS02001754           JUNCTION     1.05     1.45     8.05     0  07:45        1.45
  YS02001762           JUNCTION     1.24     1.66     8.06     0  07:45        1.66
  YS02001765           JUNCTION     1.20     1.62     8.07     0  07:37        1.61
  YS02001767           JUNCTION     1.16     1.58     8.07     0  07:37        1.58
  YS02001770           JUNCTION     1.16     1.58     8.08     0  07:37        1.58
  YS02001774           JUNCTION     1.22     1.66     8.08     0  07:37        1.65
  YS02001779           JUNCTION     0.98     1.40     8.09     0  07:37        1.39
  YS02001882           JUNCTION     0.22     0.38     7.10     0  02:46        0.38
  YS02001884           JUNCTION     0.31     0.48     7.10     0  02:46        0.48
  YS02001759           JUNCTION     1.27     1.70     8.06     0  07:45        1.69
  YS02001887           JUNCTION     0.39     0.56     7.10     0  02:46        0.56
  YS02001890           JUNCTION     0.42     0.59     7.10     0  02:45        0.59
  YS02001898           JUNCTION     0.19     0.35     7.08     0  02:47        0.35
  YS02001901           JUNCTION     0.31     0.47     7.08     0  02:47        0.47
  YS02001904           JUNCTION     0.29     0.45     7.08     0  02:47        0.45
  YS02001907           JUNCTION     0.61     0.79     7.08     0  02:47        0.79
  YS02001910           JUNCTION     0.40     0.57     7.08     0  02:47        0.57
  YS02001915           JUNCTION     0.21     0.36     7.08     0  02:46        0.36
  YS02001918           JUNCTION     0.06     0.08     7.15     0  03:03        0.08
  YS02001619           JUNCTION     0.78     1.14     8.07     0  07:45        1.13
  YS02001629           JUNCTION     1.11     1.51     8.06     0  07:45        1.51
  YS02001641           JUNCTION     1.21     1.63     8.07     0  07:45        1.63
  YS02001644           JUNCTION     1.21     1.63     8.07     0  07:45        1.63
  YS02001652           JUNCTION     1.07     1.46     8.06     0  07:49        1.46
  YS02001655           JUNCTION     0.85     1.21     8.06     0  07:47        1.20
  YS02001920           JUNCTION     0.15     0.18     7.19     0  03:02        0.18
  YS02001923           JUNCTION     0.05     0.07     7.33     0  03:02        0.07
  YS02001926           JUNCTION     0.12     0.15     7.60     0  03:01        0.15
  YS02001929           JUNCTION     0.05     0.07     7.77     0  03:01        0.07
  YS02001658           JUNCTION     0.60     0.92     8.06     0  07:47        0.91
  YS02001661           JUNCTION     0.42     0.66     8.06     0  07:47        0.65
  YS02001664           JUNCTION     0.08     0.15     8.07     0  07:46        0.14
  YS02001622           JUNCTION     0.80     1.16     8.07     0  07:45        1.15
  YS02001633           JUNCTION     1.20     1.61     8.07     0  07:45        1.61
  YS02001649           JUNCTION     1.25     1.67     8.06     0  07:45        1.66
  YS02001757           JUNCTION     1.37     1.79     8.05     0  07:45        1.79
  YS02001895           JUNCTION     0.19     0.34     7.09     0  02:46        0.34
  YS02001625           JUNCTION     1.07     1.46     8.07     0  07:45        1.45
  YS02163301           JUNCTION     1.14     1.55     8.07     0  07:45        1.55
  YS02163601           JUNCTION     1.25     1.67     8.07     0  07:45        1.67
  YS02164001           JUNCTION     1.19     1.61     8.07     0  07:45        1.61
  YS02001647           JUNCTION     1.05     1.45     8.06     0  07:45        1.45
  YSB1154              JUNCTION     0.22     0.36     9.41     0  02:13        0.36
  YSB6556              JUNCTION     0.12     0.24     9.41     0  02:14        0.24
  YSB1174              JUNCTION     0.17     0.30     9.41     0  02:13        0.30
  YSB1171              JUNCTION     0.37     0.51     9.41     0  02:13        0.51
  YS02006553           JUNCTION     0.62     0.79     7.08     0  02:47        0.79
  YS02006561           JUNCTION     0.11     0.19     6.85     0  02:47        0.19
  YS02006556           JUNCTION     0.59     0.77     7.08     0  02:47        0.77
  YS02006558           JUNCTION     0.63     0.81     7.08     0  02:47        0.81
  YS02001783           JUNCTION     0.18     0.58     6.72     0  03:19        0.57
  YS02001784           JUNCTION     0.22     0.65     6.72     0  03:19        0.63
  YS02001786           JUNCTION     0.19     0.67     6.70     0  03:19        0.64
  YS02001788           JUNCTION     0.14     0.70     6.67     0  03:19        0.69
  YS02001790           JUNCTION     0.18     1.01     6.65     0  03:19        1.00
  YS02001791           JUNCTION     0.14     1.16     6.63     0  03:19        1.15
  YS02001793           JUNCTION     0.17     1.78     6.61     0  03:19        1.78
  WSC                  OUTFALL      0.25     0.34     1.01     0  04:00        0.34
  JK-storage           STORAGE      1.98     5.80     6.60     0  03:18        5.80
  CC-storage           STORAGE      0.70     1.05     8.05     0  07:50        1.05
  XR-storage           STORAGE      2.05     7.17     5.17     0  07:50        7.17
  
  
  *******************
  Node Inflow Summary
  *******************
  
  -------------------------------------------------------------------------------------------------
                                  Maximum  Maximum                  Lateral       Total        Flow
                                  Lateral    Total  Time of Max      Inflow      Inflow     Balance
                                   Inflow   Inflow   Occurrence      Volume      Volume       Error
  Node                 Type           LPS      LPS  days hr:min    10^6 ltr    10^6 ltr     Percent
  -------------------------------------------------------------------------------------------------
  WS02001211           JUNCTION      7.35   388.31     0  06:18       0.207        6.93       0.121
  WS02001212           JUNCTION      0.00   389.12     0  04:10           0        6.92       0.096
  WS02001213           JUNCTION      0.00   390.08     0  04:10           0        6.92       0.188
  WS02003069           JUNCTION      0.32   693.60     0  03:58     0.00902        10.9       0.126
  WS02003072           JUNCTION      0.00   693.60     0  03:59           0        10.9       0.188
  WS02003073           JUNCTION      1.82   695.42     0  03:59      0.0514        10.9       0.196
  WS02003060           JUNCTION     16.53   693.28     0  03:57       0.466        10.9       0.126
  WS02003066           JUNCTION      0.00   355.16     0  02:53           0        3.58       0.090
  WS02003059           JUNCTION      0.00   391.78     0  04:10           0        6.91       0.295
  WS02003067           JUNCTION      0.00   355.13     0  02:53           0        3.59       0.203
  WS02004401           JUNCTION      0.00   361.21     0  02:49           0        3.76       0.429
  WS02004402           JUNCTION      0.00   360.55     0  02:49           0        3.75       0.417
  WS02004403           JUNCTION      0.00   360.24     0  02:49           0        3.73       0.391
  WS02004404           JUNCTION      0.16   360.08     0  02:50     0.00457        3.72       0.307
  WS02004406           JUNCTION      0.00   359.82     0  02:50           0        3.69       0.756
  WS02004409           JUNCTION      0.00   359.66     0  02:51           0        3.66       0.283
  WS02004410           JUNCTION      0.00   358.45     0  02:51           0        3.65       0.343
  WS02004411           JUNCTION      0.00   357.25     0  02:51           0        3.64       0.369
  WS02004412           JUNCTION      0.00   356.41     0  02:52           0        3.63       0.421
  WS02004413           JUNCTION      0.00   355.61     0  02:52           0        3.61       0.658
  WS02004405           JUNCTION      0.04   359.94     0  02:50     0.00107        3.71       0.461
  WS02006109           JUNCTION      1.23   362.11     0  02:45      0.0347        3.83       0.308
  WS02006110           JUNCTION      0.00   362.13     0  02:45           0        3.82       0.397
  WS02006111           JUNCTION      0.00   368.94     0  02:49           0        3.79       0.066
  WS02006112           JUNCTION      6.88   364.39     0  02:46       0.021        3.81       0.648
  WS02006113           JUNCTION      0.00   362.12     0  02:46           0         3.8       0.140
  WS02006115           JUNCTION      0.00   363.29     0  02:48           0        3.79       0.360
  WS02006116           JUNCTION      0.00   361.97     0  02:49           0        3.78       0.321
  WS02006230           JUNCTION     10.28   355.10     0  07:03        0.29        3.06       0.207
  WS02006231           JUNCTION      0.00   345.54     0  07:03           0        2.77       0.207
  WS02006232           JUNCTION      0.00   345.87     0  07:03           0        2.79       0.483
  WS02006234           JUNCTION      0.00   347.92     0  07:03           0        2.79       0.021
  WS02006235           JUNCTION      0.00   349.97     0  07:02           0        2.95       0.339
  WS02006238           JUNCTION      0.00   321.43     0  05:52           0         1.1       0.030
  WS02006240           JUNCTION      0.00   337.83     0  05:52           0       0.968       0.474
  WS02006242           JUNCTION      0.00   346.90     0  05:51           0        0.91       0.525
  WS02006243           JUNCTION      0.00   356.18     0  05:51           0       0.862      -0.373
  WS02006245           JUNCTION      0.00   361.42     0  05:51           0       0.849       0.769
  WS02006247           JUNCTION      0.00   366.07     0  05:51           0       0.842       0.190
  WS02006248           JUNCTION      0.00   370.57     0  05:50           0       0.836      -0.300
  WS02006249           JUNCTION      0.00   376.33     0  05:50           0        0.84       0.546
  WS02006239           JUNCTION      0.00   327.62     0  05:52           0        1.03      -0.007
  WS02006251           JUNCTION      0.08   399.74     0  05:50     0.00217       0.858      -0.068
  WS02006252           JUNCTION      0.00   399.84     0  05:50           0       0.721       0.016
  WS02006253           JUNCTION      1.01    30.56     0  02:14     0.00272       0.136       0.188
  WS02006256           JUNCTION      0.00   983.00     0  03:30           0         3.2       0.044
  WS02004138           JUNCTION      0.00   380.00     0  00:00           0        6.73       0.033
  WS02004139           JUNCTION      0.32   394.45     0  00:00     0.00905        6.74       0.245
  WS02004407           JUNCTION      0.00   359.71     0  02:50           0        3.67       0.124
  WS02006228           JUNCTION      0.00   360.84     0  02:45           0         3.8       0.258
  WS02006229           JUNCTION      0.00   360.98     0  02:45           0        3.81       0.321
  WS02006280           JUNCTION      0.00   160.67     0  02:15           0       0.764       0.010
  WS02006284           JUNCTION      0.10   160.67     0  02:15      0.0027       0.765       0.147
  WS02006287           JUNCTION      0.00   160.59     0  02:15           0       0.763       0.093
  WSF200               JUNCTION      0.00   355.14     0  02:53           0        3.58       0.077
  HS02004901           JUNCTION      8.48     8.48     0  02:07      0.0253      0.0254       7.417
  HS02004881           JUNCTION      3.47    29.75     0  02:14       0.011       0.115       0.055
  HS02004876           JUNCTION      5.62    26.55     0  02:14      0.0211       0.104       0.500
  HS02004870           JUNCTION      6.17    21.08     0  02:14      0.0209      0.0832       0.128
  HS02004862           JUNCTION      5.17    15.36     0  02:15      0.0264      0.0625       0.268
  HS02004856           JUNCTION      4.58    10.25     0  02:14      0.0157      0.0375       3.977
  HS02004852           JUNCTION      0.00     5.99     0  02:14           0      0.0219       0.220
  HS02004848           JUNCTION     10.20    10.20     0  02:16      0.0495      0.0495       0.088
  HS02004842           JUNCTION      0.00     4.50     0  02:24           0      0.0406      47.077
  HS02004837           JUNCTION     16.30    20.31     0  02:13       0.215       0.243       0.336
  HS02004830           JUNCTION      0.15    20.44     0  02:13     0.00423       0.233       0.530
  HS02004824           JUNCTION     11.40    31.73     0  02:16      0.0649       0.297       0.182
  HS02004817           JUNCTION      0.60    32.33     0  02:17      0.0169       0.313       5.614
  HS02004807           JUNCTION     11.59    42.93     0  02:15      0.0384       0.335       1.277
  HS02004802           JUNCTION      0.00    43.05     0  02:17           0       0.331       1.244
  HS02004799           JUNCTION      8.96   100.22     0  02:12       0.031       0.386       0.607
  HS02004792           JUNCTION     39.86    91.47     0  02:12       0.137       0.355       0.118
  HS02004788           JUNCTION     13.85    53.25     0  02:13      0.0902       0.219       0.178
  HS02004785           JUNCTION      0.15    39.85     0  02:12     0.00423        0.13       0.367
  HS02004777           JUNCTION      0.03    40.20     0  02:11    0.000846       0.131       4.117
  HS02004770           JUNCTION     33.62    41.23     0  02:09       0.108       0.132       2.409
  HS02004480           JUNCTION      0.00   118.11     0  02:13           0       0.447       0.154
  HS02004479           JUNCTION      0.00    18.30     0  02:15           0      0.0742       0.991
  HS02004478           JUNCTION      0.00   160.59     0  02:14           0       0.763       0.079
  YS02001745           JUNCTION     53.24    55.17     0  04:20       0.633       0.635       1.200
  YS02001748           JUNCTION      0.04    86.32     0  04:20     0.00127       0.629       3.565
  YS02001751           JUNCTION      0.01    81.01     0  03:18     0.00031       0.606       4.145
  YS02001754           JUNCTION      0.26    67.84     0  02:55     0.00733       0.589       4.458
  YS02001762           JUNCTION      0.00    74.11     0  02:40           0       0.666       3.447
  YS02001765           JUNCTION      0.00    82.24     0  02:45           0       0.669       3.907
  YS02001767           JUNCTION      0.54    79.98     0  03:26      0.0151       0.692       5.513
  YS02001770           JUNCTION     69.47    82.37     0  03:24       0.749       0.764       4.535
  YS02001774           JUNCTION      0.00    32.95     0  03:26           0      0.0699      59.539
  YS02001779           JUNCTION      0.01    32.82     0  03:25    0.000141      0.0289     121.822
  YS02001882           JUNCTION      0.00     2.87     0  02:05           0     0.00418      58.706
  YS02001884           JUNCTION      0.00     8.32     0  02:05           0      0.0169      37.204
  YS02001759           JUNCTION     68.31   142.25     0  02:40       0.701        1.33       1.832
  YS02001887           JUNCTION     91.29    91.29     0  02:36       0.845       0.854       0.810
  YS02001890           JUNCTION      0.00    90.56     0  02:38           0       0.832       0.913
  YS02001898           JUNCTION      0.00    90.16     0  02:41           0       0.822       0.240
  YS02001901           JUNCTION      0.00    90.02     0  02:43           0       0.821       0.642
  YS02001904           JUNCTION      0.00    89.81     0  02:43           0       0.819       0.596
  YS02001907           JUNCTION      0.00   161.78     0  02:49           0        1.75       1.251
  YS02001910           JUNCTION      0.00    72.88     0  02:58           0       0.938       1.054
  YS02001915           JUNCTION     48.02    72.54     0  02:55       0.544       0.942       0.448
  YS02001918           JUNCTION      0.00    25.09     0  03:02           0       0.399       0.245
  YS02001619           JUNCTION     46.58    46.58     0  02:50       0.536       0.536       2.406
  YS02001629           JUNCTION      0.00    52.54     0  03:27           0       0.454       6.986
  YS02001641           JUNCTION      0.00    89.72     0  02:50           0        0.97       2.318
  YS02001644           JUNCTION     50.53   140.38     0  02:55       0.607        1.55       1.761
  YS02001652           JUNCTION      0.00    73.87     0  02:53           0       0.558       4.582
  YS02001655           JUNCTION      0.15    81.81     0  03:16     0.00434       0.582       4.473
  YS02001920           JUNCTION      2.87    25.10     0  03:02      0.0809       0.401       0.468
  YS02001923           JUNCTION      0.04    22.23     0  03:01     0.00106        0.32       0.081
  YS02001926           JUNCTION      0.05    22.23     0  03:01     0.00147       0.321       0.589
  YS02001929           JUNCTION     22.18    22.18     0  03:01        0.32        0.32       0.078
  YS02001658           JUNCTION      0.00    64.29     0  02:38           0       0.607       3.766
  YS02001661           JUNCTION      0.00    64.29     0  02:38           0        0.64       2.330
  YS02001664           JUNCTION     64.29    64.29     0  02:38       0.615       0.634       0.213
  YS02001622           JUNCTION      0.00    55.10     0  03:50           0       0.524       6.567
  YS02001633           JUNCTION     51.36    94.23     0  02:55       0.626        1.03       3.294
  YS02001649           JUNCTION      0.00   208.20     0  02:47           0        2.01       1.954
  YS02001757           JUNCTION      0.00   378.33     0  02:39           0        3.81       2.533
  YS02001895           JUNCTION      0.00    90.29     0  02:39           0       0.825       0.416
  YS02001625           JUNCTION      0.00    48.93     0  02:41           0       0.491       8.674
  YS02163301           JUNCTION      0.00    46.38     0  02:56           0       0.431       6.157
  YS02163601           JUNCTION      0.11    90.26     0  02:50      0.0031       0.995       3.169
  YS02164001           JUNCTION      0.00    91.50     0  02:50           0       0.974       2.295
  YS02001647           JUNCTION      0.00   135.75     0  02:58           0        1.51       1.985
  YSB1154              JUNCTION      9.99     9.99     0  02:11      0.0376      0.0388       3.865
  YSB6556              JUNCTION      0.00     9.92     0  02:13           0      0.0397       3.229
  YSB1174              JUNCTION      9.56     9.56     0  02:07      0.0274      0.0283       4.757
  YSB1171              JUNCTION      0.00    18.33     0  02:12           0      0.0735       9.400
  YS02006553           JUNCTION      0.00   161.84     0  02:49           0        1.74       0.813
  YS02006561           JUNCTION      0.00   237.80     0  02:47           0        2.46       0.024
  YS02006556           JUNCTION      0.00   161.90     0  02:49           0        1.74       0.584
  YS02006558           JUNCTION     76.80   237.80     0  02:47        0.77        2.48       0.178
  YS02001783           JUNCTION      0.00   237.80     0  02:47           0        2.46       0.054
  YS02001784           JUNCTION      1.06   245.90     0  03:19      0.0299        2.49       0.094
  YS02001786           JUNCTION      0.06   255.61     0  03:20     0.00159        2.48       0.090
  YS02001788           JUNCTION      0.07   298.87     0  03:26       0.002        2.48       0.051
  YS02001790           JUNCTION      0.15   373.50     0  03:25     0.00437        2.49       0.025
  YS02001791           JUNCTION      0.00   423.07     0  03:25           0        2.49       0.014
  YS02001793           JUNCTION      0.00   459.82     0  03:26           0        2.49       0.025
  WSC                  OUTFALL       0.00   695.42     0  04:00           0        10.9       0.000
  JK-storage           STORAGE       0.00   508.42     0  03:27           0        2.64     -18.573
  CC-storage           STORAGE       0.00   357.68     0  02:47           0        3.71       1.553
  XR-storage           STORAGE     294.42   294.42     0  02:46         6.8         7.4      -2.479
  
  
  **********************
  Node Surcharge Summary
  **********************
  
  Surcharging occurs when water rises above the top of the highest conduit.
  ---------------------------------------------------------------------
                                               Max. Height   Min. Depth
                                   Hours       Above Crown    Below Rim
  Node                 Type      Surcharged         Meters       Meters
  ---------------------------------------------------------------------
  WS02006252           JUNCTION        0.13          0.185        0.915
  WS02006256           JUNCTION        6.02          2.050        0.000
  YS02001751           JUNCTION        2.89          0.176        1.024
  YS02001754           JUNCTION        3.79          0.397        0.753
  YS02001762           JUNCTION        4.66          0.662        0.488
  YS02001765           JUNCTION        4.49          0.619        0.481
  YS02001767           JUNCTION        4.37          0.581        0.449
  YS02001770           JUNCTION        4.25          0.554        0.366
  YS02001774           JUNCTION        4.59          0.662        0.388
  YS02001779           JUNCTION        3.69          0.400        0.280
  YS02001759           JUNCTION        4.80          0.695        0.515
  YS02001619           JUNCTION        2.66          0.141        0.469
  YS02001629           JUNCTION        2.66          0.134        0.336
  YS02001641           JUNCTION        4.54          0.631        0.469
  YS02001644           JUNCTION        4.56          0.635        0.285
  YS02001652           JUNCTION        3.90          0.431        0.699
  YS02001655           JUNCTION        3.02          0.209        0.991
  YS02001622           JUNCTION        2.78          0.165        0.455
  YS02001633           JUNCTION        4.43          0.592        0.468
  YS02001649           JUNCTION        4.70          0.668        0.382
  YS02001757           JUNCTION        5.18          0.794        0.416
  YS02001625           JUNCTION        3.99          0.461        0.319
  YS02163301           JUNCTION        4.29          0.548        0.482
  YS02163601           JUNCTION        4.68          0.671        0.409
  YS02164001           JUNCTION        4.47          0.610        0.490
  YS02001647           JUNCTION        3.96          0.451        0.449
  YS02001790           JUNCTION        0.16          0.208        0.949
  YS02001791           JUNCTION        0.32          0.356        1.564
  YS02001793           JUNCTION        0.56          0.779        1.821
  
  
  *********************
  Node Flooding Summary
  *********************
  
  Flooding refers to all water that overflows a node, whether it ponds or not.
  --------------------------------------------------------------------------
                                                             Total   Maximum
                                 Maximum   Time of Max       Flood    Ponded
                        Hours       Rate    Occurrence      Volume     Depth
  Node                 Flooded       LPS   days hr:min    10^6 ltr    Meters
  --------------------------------------------------------------------------
  WS02006256              1.23    732.61      0  03:34       1.229     0.000
  JK-storage              0.07    263.26      0  03:20       0.036     0.000
  
  
  **********************
  Storage Volume Summary
  **********************
  
  --------------------------------------------------------------------------------------------------
                         Average     Avg  Evap Exfil       Maximum     Max    Time of Max    Maximum
                          Volume    Pcnt  Pcnt  Pcnt        Volume    Pcnt     Occurrence    Outflow
  Storage Unit           1000 m3    Full  Loss  Loss       1000 m3    Full    days hr:min        LPS
  --------------------------------------------------------------------------------------------------
  JK-storage               0.099      34     0     0         0.291     100       0  03:18     983.00
  CC-storage               1.945      12     0     0         2.938      19       0  07:50     399.84
  XR-storage               0.246      27     0     0         0.860      93       0  07:50     380.00
  
  
  ***********************
  Outfall Loading Summary
  ***********************
  
  ---------------------------------------------------------------------------------------------------------------------------------
                         Flow       Avg       Max       Total         Total         Total         Total         Total         Total
                         Freq      Flow      Flow      Volume           COD            SS            TN            TP         NH4-N
  Outfall Node           Pcnt       LPS       LPS    10^6 ltr            kg            kg            kg            kg            kg
  ---------------------------------------------------------------------------------------------------------------------------------
  WSC                   99.99    414.94    695.42      10.908      1532.404      2461.587       136.792        16.921        85.028
  ---------------------------------------------------------------------------------------------------------------------------------
  System                99.99    414.94    695.42      10.908      1532.404      2461.587       136.792        16.921        85.028
  
  
  ********************
  Link Flow Summary
  ********************
  
  -----------------------------------------------------------------------------
                                 Maximum  Time of Max   Maximum    Max/    Max/
                                  |Flow|   Occurrence   |Veloc|    Full    Full
  Link                 Type          LPS  days hr:min     m/sec    Flow   Depth
  -----------------------------------------------------------------------------
  WS02003066WSF200     CONDUIT    355.14     0  02:53      2.54    0.06    0.18
  WS02006287WS02006284 CONDUIT    160.58     0  02:15      1.49    0.07    0.20
  WS02006284WS02006280 CONDUIT    160.67     0  02:15      1.73    0.07    0.18
  WS02006280WS02006229 CONDUIT    160.68     0  02:15      2.78    0.03    0.13
  WS02006229WS02006228 CONDUIT    360.84     0  02:45      0.74    1.20    0.94
  WS02006256WS02006235 CONDUIT    264.10     0  00:42      3.74    2.80    1.00
  WS02006253WS02006251 CONDUIT     30.54     0  02:15      0.45    0.09    0.84
  WS02006252WS02006251 CONDUIT    399.66     0  05:50      3.18    1.47    1.00
  WS02006251WS02006249 CONDUIT    376.33     0  05:50      1.13    1.09    0.82
  WS02006249WS02006248 CONDUIT    370.57     0  05:50      1.19    2.03    0.77
  WS02006248WS02006247 CONDUIT    366.07     0  05:51      1.16    0.80    0.77
  WS02006247WS02006245 CONDUIT    361.42     0  05:51      1.14    2.87    0.78
  WS02006245WS02006243 CONDUIT    356.18     0  05:51      1.19    1.05    0.75
  WS02006243WS02006242 CONDUIT    346.90     0  05:51      1.07    0.74    0.81
  WS02006242WS02006240 CONDUIT    337.83     0  05:52      1.01    1.34    0.84
  WS02006240WS02006239 CONDUIT    327.62     0  05:52      1.06    1.03    0.79
  WS02006239WS02006238 CONDUIT    321.43     0  05:52      0.95    1.03    0.88
  WS02006238WS02006235 CONDUIT    317.23     0  05:52      1.05    0.71    0.92
  WS02006235WS02006234 CONDUIT    347.92     0  07:03      1.08    3.67    0.86
  WS02006234WS02006232 CONDUIT    345.87     0  07:03      1.17    0.70    0.90
  WS02006232WS02006231 CONDUIT    345.54     0  07:03      1.00    0.72    0.84
  WS02006231WS02006230 CONDUIT    344.82     0  07:03      1.34    5.23    0.64
  WS02006230WS02006229 CONDUIT    350.34     0  07:04      0.91    7.80    1.00
  WS02006228WS02006109 CONDUIT    360.88     0  02:45      0.72    1.58    0.97
  WS02006116WS02004401 CONDUIT    361.21     0  02:49      0.89    0.50    0.70
  WS02006115WS02006116 CONDUIT    361.97     0  02:49      0.94    0.46    0.61
  WS02006113WS02006111 CONDUIT    368.94     0  02:49      2.15    0.44    0.37
  WS02006112WS02006115 CONDUIT    363.29     0  02:48      0.65    0.21    0.74
  WS02006111WS02006112 CONDUIT    362.07     0  02:46      1.08    0.17    0.64
  WS02006110WS02006113 CONDUIT    362.12     0  02:46      0.94    0.33    0.72
  WS02006109WS02006110 CONDUIT    362.13     0  02:45      0.75    0.70    0.91
  WS02004411WS02004412 CONDUIT    356.41     0  02:52      0.76    0.51    0.57
  WS02004401WS02004402 CONDUIT    360.55     0  02:49      0.91    0.43    0.73
  WS02004413WS02003067 CONDUIT    355.13     0  02:53      0.89    0.15    0.51
  WS02004412WS02004413 CONDUIT    355.61     0  02:52      0.64    0.24    0.67
  WS02004410WS02004411 CONDUIT    357.25     0  02:51      0.79    0.49    0.56
  WS02004409WS02004410 CONDUIT    358.45     0  02:51      0.85    0.46    0.54
  WS02004407WS02004409 CONDUIT    359.66     0  02:51      1.33    0.13    0.39
  WS02004406WS02004407 CONDUIT    359.71     0  02:50      0.82    0.16    0.55
  WS02004405WS02004406 CONDUIT    359.82     0  02:50      0.77    0.71    0.84
  WS02004404WS02004405 CONDUIT    359.90     0  02:50      1.03    3.53    0.84
  WS02004403WS02004404 CONDUIT    359.92     0  02:50      0.90    0.26    0.80
  WS02004402WS02004403 CONDUIT    360.24     0  02:49      0.93    0.52    0.76
  WS02004139WS02001211 CONDUIT    380.96     0  06:18      0.90    0.48    0.58
  WS02004138WS02004139 CONDUIT    394.13     0  00:00      3.62    0.08    0.43
  WS02003067WS02003066 CONDUIT    355.16     0  02:53      0.96    0.11    0.36
  WS02001213WS02003059 CONDUIT    391.78     0  04:10      0.89    0.65    0.72
  WS02001212WS02001213 CONDUIT    390.08     0  04:10      1.32    0.60    0.43
  WS02001211WS02001212 CONDUIT    389.12     0  04:10      0.78    0.30    0.62
  WS02003072WS02003073 CONDUIT    693.60     0  03:59      1.55    1.50    0.42
  WS02003069WS02003072 CONDUIT    693.60     0  03:59      1.47    0.33    0.43
  WS02003060WS02003069 CONDUIT    693.28     0  03:58      1.73    0.27    0.38
  WS02003059WS02003060 CONDUIT    394.32     0  04:11      0.95    0.26    0.59
  HS02004901HS02004770 CONDUIT      7.81     0  02:12      0.04    0.03    0.29
  HS02004876HS02004881 CONDUIT     26.58     0  02:15      0.47    0.28    0.08
  HS02004870HS02004876 CONDUIT     21.06     0  02:15      0.33    0.01    0.09
  HS02004842HS02004848 CONDUIT      4.50     0  02:24      0.02    0.00    0.27
  HS02004837HS02004842 CONDUIT      4.65     0  02:25      0.42    0.00    0.28
  HS02004830HS02004837 CONDUIT     20.29     0  02:13      0.41    0.02    0.07
  HS02004824HS02004830 CONDUIT     20.44     0  02:14      0.45    0.03    0.06
  HS02004817HS02004824 CONDUIT     31.73     0  02:17      0.17    0.01    0.38
  HS02004770HS02004777 CONDUIT     40.17     0  02:11      0.19    0.07    0.30
  HS02004799HS02004480 CONDUIT    100.05     0  02:13      0.52    0.13    0.28
  HS02004792HS02004799 CONDUIT     91.42     0  02:12      0.60    0.06    0.22
  HS02004788HS02004792 CONDUIT     53.21     0  02:14      0.76    0.04    0.10
  HS02004785HS02004788 CONDUIT     39.71     0  02:14      0.45    0.30    0.13
  HS02004777HS02004785 CONDUIT     39.70     0  02:12      0.23    0.05    0.25
  HS02004480HS02004478 CONDUIT    118.08     0  02:14      0.86    0.50    0.20
  HS02004479HS02004480 CONDUIT     18.47     0  02:15      0.16    0.02    0.27
  HS02004862HS02004870 CONDUIT     15.32     0  02:16      0.42    0.02    0.05
  HS02004848HS02004852 CONDUIT      5.99     0  02:14      0.28    0.01    0.03
  HS02004856HS02004862 CONDUIT     10.22     0  02:15      0.30    0.01    0.05
  HS02004852HS02004856 CONDUIT      5.95     0  02:16      0.10    0.01    0.09
  HS02004802HS02004478 CONDUIT     43.27     0  02:17      0.27    0.04    0.23
  HS02004478WS02006287 CONDUIT    160.59     0  02:15      1.18    0.04    0.15
  HS02004817HS02004807 CONDUIT     32.65     0  02:19      0.10    0.02    0.49
  HS02004807HS02004802 CONDUIT     43.05     0  02:17      0.22    0.08    0.28
  YS02001759YS02001757 CONDUIT    137.98     0  02:36      0.18    0.10    1.00
  YS02001762YS02001759 CONDUIT     74.09     0  02:50      0.17    0.09    1.00
  YS02001765YS02001762 CONDUIT     74.11     0  02:40      0.24    0.07    1.00
  YS02001770YS02001767 CONDUIT     79.45     0  03:26      0.28    0.31    1.00
  YS02001774YS02001770 CONDUIT     32.95     0  03:26      0.12    0.02    1.00
  YS02001779YS02001774 CONDUIT     32.81     0  03:25      0.07    0.02    1.00
  YS02001649YS02001757 CONDUIT    196.95     0  02:47      0.25    0.12    1.00
  YS02001767YS02001765 CONDUIT     82.24     0  02:45      0.26    0.10    1.00
  YS02006561YS02001783 CONDUIT    237.80     0  02:47      1.66    0.12    0.47
  YS02001783YS02001784 CONDUIT    244.84     0  03:19      1.13    0.34    0.75
  YS02001784YS02001785 CONDUIT    255.56     0  03:20      1.20    0.59    0.82
  YS02001788YS02001790 CONDUIT    373.35     0  03:25      1.75    0.28    0.93
  YS02001790YS02001791 CONDUIT    423.07     0  03:25      2.03    0.46    1.00
  YS02001791YS02001793 CONDUIT    459.82     0  03:26      4.04    0.20    1.00
  YS02001910YS02001907 CONDUIT     73.11     0  02:58      0.49    0.04    0.68
  YS02001786YS02001788 CONDUIT    298.80     0  03:26      1.73    0.58    0.85
  YS02001915YS02001910 CONDUIT     72.88     0  02:58      0.45    0.04    0.47
  YS02001918YS02001915 CONDUIT     25.08     0  03:03      0.44    0.01    0.22
  YS02001923YS02001920 CONDUIT     22.23     0  03:02      0.38    0.01    0.13
  YS02001926YS02001923 CONDUIT     22.20     0  03:01      0.43    0.03    0.12
  YS02001929YS02001926 CONDUIT     22.18     0  03:01      0.46    0.01    0.11
  YS02001920YS02001918 CONDUIT     25.09     0  03:02      0.41    0.02    0.13
  YS02001629YS02163301 CONDUIT     46.38     0  02:56      0.10    0.06    1.00
  YS02001619YS02001622 CONDUIT     55.10     0  03:50      0.59    0.08    1.00
  YS02001622YS02001625 CONDUIT     48.93     0  02:41      0.21    0.03    1.00
  YS02001625YS02001629 CONDUIT     52.54     0  03:27      0.22    0.02    1.00
  YS02163301YS02001633 CONDUIT     42.89     0  02:55      0.07    0.04    1.00
  YS02163601YS02164001 CONDUIT     91.50     0  02:50      0.13    0.08    1.00
  YS02164001YS02001641 CONDUIT     89.72     0  02:50      0.13    0.12    1.00
  YS02001641YS02001644 CONDUIT     89.86     0  02:55      0.13    0.29    1.00
  YS02001647YS02001649 CONDUIT    139.65     0  02:49      0.21    0.07    1.00
  YS02006553YS02006556 CONDUIT    161.90     0  02:49      0.25    0.14    0.76
  YS02006556YS02006558 CONDUIT    161.93     0  02:50      0.24    0.13    0.79
  YSB6556YSB1171       CONDUIT     10.04     0  02:15      0.05    0.01    0.54
  YS02001907YS02006553 CONDUIT    161.84     0  02:49      0.21    0.19    0.86
  YS02006558YS02006561 CONDUIT    237.80     0  02:47      2.14    0.53    0.42
  YS02001633YS02163601 CONDUIT     90.15     0  02:50      0.13    0.09    1.00
  YS02001644YS02001647 CONDUIT    135.75     0  02:58      0.21    0.08    1.00
  YS02001745YS02001748 CONDUIT     86.27     0  04:20      1.32    0.03    0.72
  YS02001748YS02001751 CONDUIT     81.00     0  03:18      1.02    0.04    0.99
  YS02001751YS02001754 CONDUIT     67.58     0  02:55      0.90    0.03    1.00
  YS02001754YS02001757 CONDUIT     70.73     0  03:01      0.33    0.03    1.00
  YS02001882YS02001884 CONDUIT      2.87     0  02:05      0.07    0.00    0.40
  YS02001884YS02001887 CONDUIT      8.32     0  02:05      0.04    0.01    0.50
  YS02001890YS02001895 CONDUIT     90.29     0  02:39      0.25    0.04    0.47
  YS02001895YS02001898 CONDUIT     90.16     0  02:41      0.43    0.16    0.33
  YS02001898YS02001901 CONDUIT     90.02     0  02:43      0.30    0.06    0.41
  YS02001901YS02001904 CONDUIT     89.81     0  02:43      0.26    0.14    0.46
  YS02001904YS02001907 CONDUIT     89.79     0  02:43      0.18    0.03    0.62
  YS02001887YS02001890 CONDUIT     90.56     0  02:38      0.21    0.15    0.55
  YS02001652YS02001649 CONDUIT     79.23     0  02:47      0.31    0.04    1.00
  YS02001655YS02001652 CONDUIT     73.87     0  02:53      0.94    0.04    1.00
  YS02001658YS02001655 CONDUIT     81.65     0  03:16      1.18    0.03    0.96
  YS02001661YS02001658 CONDUIT     64.29     0  02:38      1.34    0.03    0.75
  YS02001664YS02001661 CONDUIT     64.29     0  02:38      0.97    0.02    0.40
  YSB1154YSB6556       CONDUIT      9.92     0  02:13      0.19    0.02    0.43
  YSB1174YSB1171       CONDUIT      8.95     0  02:08      0.04    0.01    0.55
  YSB1171HS02004479    CONDUIT     18.30     0  02:15      0.54    0.01    0.42
  HS02004881HS02006253 CONDUIT     29.75     0  02:14      1.50    0.01    0.19
  YS02001793JiankangQianchi CONDUIT    508.42     0  03:27     12.32    0.04    1.00
  YS02001757CaochengTiaoxuchi CONDUIT    357.68     0  02:47      0.78    0.16    1.00
  WSF200WS02003060     CONDUIT    354.85     0  02:53      1.79    0.08    0.27
  1                    CONDUIT    695.42     0  04:00      3.01    0.24    0.34
  CC-Pump-1            PUMP       200.00     0  06:20              1.00
  CC-Pump-2            PUMP       199.92     0  05:50              1.00
  JK-Pump-1            PUMP       300.00     0  03:30              1.00
  JK-Pump-2            PUMP       683.00     0  03:30              1.00
  XR-Pump-1            PUMP        95.00     0  00:00              1.00
  XR-Pump-2            PUMP        95.00     0  00:00              1.00
  XR-Pump-3            PUMP        95.00     0  00:00              1.00
  XR-Pump-4            PUMP        95.00     0  00:00              1.00
  
  
  ***************************
  Flow Classification Summary
  ***************************
  
  -------------------------------------------------------------------------------------
                      Adjusted    ---------- Fraction of Time in Flow Class ---------- 
                       /Actual         Up    Down  Sub   Sup   Up    Down  Norm  Inlet 
  Conduit               Length    Dry  Dry   Dry   Crit  Crit  Crit  Crit  Ltd   Ctrl  
  -------------------------------------------------------------------------------------
  WS02003066WSF200        1.00   0.02  0.08  0.00  0.00  0.90  0.00  0.00  0.77  0.00
  WS02006287WS02006284    1.00   0.05  0.04  0.00  0.73  0.18  0.00  0.00  0.79  0.00
  WS02006284WS02006280    1.00   0.07  0.00  0.00  0.00  0.00  0.00  0.93  0.00  0.00
  WS02006280WS02006229    1.00   0.07  0.00  0.00  0.00  0.00  0.00  0.93  0.00  0.00
  WS02006229WS02006228    1.00   0.00  0.00  0.00  1.00  0.00  0.00  0.00  0.00  0.00
  WS02006256WS02006235    1.00   0.04  0.00  0.00  0.96  0.01  0.00  0.00  0.00  0.00
  WS02006253WS02006251    1.00   0.02  0.03  0.00  0.94  0.00  0.01  0.00  0.00  0.00
  WS02006252WS02006251    1.00   0.49  0.00  0.00  0.00  0.00  0.51  0.00  0.00  0.00
  WS02006251WS02006249    1.00   0.00  0.00  0.00  1.00  0.00  0.00  0.00  0.79  0.00
  WS02006249WS02006248    1.00   0.00  0.01  0.00  0.51  0.00  0.48  0.00  0.00  0.00
  WS02006248WS02006247    1.00   0.01  0.00  0.00  0.97  0.00  0.00  0.02  0.54  0.00
  WS02006247WS02006245    1.00   0.01  0.00  0.00  0.92  0.00  0.00  0.07  0.00  0.00
  WS02006245WS02006243    1.00   0.01  0.00  0.00  0.80  0.00  0.00  0.18  0.04  0.00
  WS02006243WS02006242    1.00   0.02  0.00  0.00  0.96  0.00  0.00  0.02  0.45  0.00
  WS02006242WS02006240    1.00   0.02  0.02  0.00  0.96  0.00  0.00  0.00  0.00  0.00
  WS02006240WS02006239    1.00   0.04  0.00  0.00  0.81  0.00  0.00  0.15  0.02  0.00
  WS02006239WS02006238    1.00   0.04  0.00  0.00  0.96  0.00  0.00  0.00  0.18  0.00
  WS02006238WS02006235    1.00   0.04  0.00  0.00  0.96  0.00  0.00  0.00  0.00  0.00
  WS02006235WS02006234    1.00   0.04  0.00  0.00  0.87  0.00  0.09  0.00  0.00  0.00
  WS02006234WS02006232    1.00   0.04  0.00  0.00  0.96  0.00  0.00  0.00  0.08  0.00
  WS02006232WS02006231    1.00   0.04  0.00  0.00  0.96  0.00  0.00  0.00  0.00  0.00
  WS02006231WS02006230    1.00   0.04  0.00  0.00  0.10  0.00  0.86  0.00  0.00  0.00
  WS02006230WS02006229    1.00   0.00  0.00  0.00  0.99  0.00  0.00  0.01  0.01  0.00
  WS02006228WS02006109    1.00   0.00  0.00  0.00  1.00  0.00  0.00  0.00  0.01  0.00
  WS02006116WS02004401    1.00   0.05  0.00  0.00  0.95  0.00  0.00  0.00  0.00  0.00
  WS02006115WS02006116    1.00   0.05  0.00  0.00  0.95  0.00  0.00  0.01  0.00  0.00
  WS02006113WS02006111    1.00   0.03  0.00  0.00  0.01  0.96  0.00  0.00  0.27  0.00
  WS02006112WS02006115    1.00   0.03  0.02  0.00  0.95  0.00  0.00  0.00  0.00  0.00
  WS02006111WS02006112    1.00   0.03  0.00  0.00  0.96  0.00  0.00  0.00  0.92  0.00
  WS02006110WS02006113    1.00   0.00  0.02  0.00  0.97  0.00  0.00  0.00  0.00  0.00
  WS02006109WS02006110    1.00   0.00  0.00  0.00  0.99  0.00  0.01  0.00  0.00  0.00
  WS02004411WS02004412    1.00   0.06  0.00  0.00  0.94  0.00  0.00  0.00  0.00  0.00
  WS02004401WS02004402    1.00   0.05  0.00  0.00  0.95  0.00  0.00  0.00  0.00  0.00
  WS02004413WS02003067    1.00   0.07  0.02  0.00  0.00  0.00  0.91  0.00  0.00  0.00
  WS02004412WS02004413    1.00   0.07  0.00  0.00  0.93  0.00  0.00  0.00  0.01  0.00
  WS02004410WS02004411    1.00   0.06  0.00  0.00  0.94  0.00  0.00  0.00  0.01  0.00
  WS02004409WS02004410    1.00   0.06  0.00  0.00  0.94  0.00  0.00  0.00  0.03  0.00
  WS02004407WS02004409    1.00   0.06  0.00  0.00  0.93  0.00  0.00  0.00  0.86  0.00
  WS02004406WS02004407    1.00   0.00  0.06  0.00  0.94  0.00  0.00  0.00  0.00  0.00
  WS02004405WS02004406    1.00   0.00  0.00  0.00  1.00  0.00  0.00  0.00  0.04  0.00
  WS02004404WS02004405    1.00   0.00  0.00  0.00  1.00  0.00  0.00  0.00  0.00  0.00
  WS02004403WS02004404    1.00   0.00  0.05  0.00  0.95  0.00  0.00  0.00  0.00  0.00
  WS02004402WS02004403    1.00   0.05  0.00  0.00  0.95  0.00  0.00  0.00  0.00  0.00
  WS02004139WS02001211    1.00   0.00  0.00  0.00  1.00  0.00  0.00  0.00  0.00  0.00
  WS02004138WS02004139    1.00   0.00  0.08  0.00  0.91  0.00  0.00  0.00  1.00  0.00
  WS02003067WS02003066    1.00   0.09  0.01  0.00  0.91  0.00  0.00  0.00  0.00  0.00
  WS02001213WS02003059    1.00   0.00  0.00  0.00  1.00  0.00  0.00  0.00  0.00  0.00
  WS02001212WS02001213    1.00   0.00  0.00  0.00  0.68  0.00  0.32  0.00  0.00  0.00
  WS02001211WS02001212    1.00   0.00  0.00  0.00  1.00  0.00  0.00  0.00  0.00  0.00
  WS02003072WS02003073    1.00   0.00  0.00  0.00  0.00  0.00  0.00  1.00  0.00  0.00
  WS02003069WS02003072    1.00   0.00  0.00  0.00  1.00  0.00  0.00  0.00  0.38  0.00
  WS02003060WS02003069    1.00   0.00  0.00  0.00  0.96  0.04  0.00  0.00  0.29  0.00
  WS02003059WS02003060    1.00   0.00  0.00  0.00  1.00  0.00  0.00  0.00  0.00  0.00
  HS02004901HS02004770    1.00   0.06  0.00  0.00  0.94  0.00  0.00  0.00  0.02  0.00
  HS02004876HS02004881    1.00   0.01  0.00  0.00  0.99  0.00  0.00  0.00  0.00  0.00
  HS02004870HS02004876    1.00   0.00  0.00  0.00  0.99  0.00  0.00  0.00  0.95  0.00
  HS02004842HS02004848    1.00   0.00  0.07  0.00  0.93  0.00  0.00  0.00  0.68  0.00
  HS02004837HS02004842    1.00   0.00  0.00  0.00  1.00  0.00  0.00  0.00  0.11  0.00
  HS02004830HS02004837    1.00   0.00  0.00  0.00  1.00  0.00  0.00  0.00  0.99  0.00
  HS02004824HS02004830    1.00   0.00  0.00  0.00  1.00  0.00  0.00  0.00  0.00  0.00
  HS02004817HS02004824    1.00   0.00  0.00  0.00  1.00  0.00  0.00  0.00  1.00  0.00
  HS02004770HS02004777    1.00   0.00  0.06  0.00  0.94  0.00  0.00  0.00  0.06  0.00
  HS02004799HS02004480    1.00   0.00  0.02  0.00  0.91  0.00  0.08  0.00  0.00  0.00
  HS02004792HS02004799    1.00   0.00  0.00  0.00  1.00  0.00  0.00  0.00  0.98  0.00
  HS02004788HS02004792    1.00   0.00  0.00  0.00  1.00  0.00  0.00  0.00  0.98  0.00
  HS02004785HS02004788    1.00   0.00  0.00  0.00  1.00  0.00  0.00  0.00  0.00  0.00
  HS02004777HS02004785    1.00   0.00  0.00  0.00  1.00  0.00  0.00  0.00  0.18  0.00
  HS02004480HS02004478    1.00   0.07  0.00  0.00  0.74  0.00  0.00  0.18  0.00  0.00
  HS02004479HS02004480    1.00   0.02  0.00  0.00  0.98  0.00  0.00  0.00  0.15  0.00
  HS02004862HS02004870    1.00   0.00  0.00  0.00  1.00  0.00  0.00  0.00  0.06  0.00
  HS02004848HS02004852    1.00   0.07  0.00  0.00  0.93  0.00  0.00  0.00  0.71  0.00
  HS02004856HS02004862    1.00   0.00  0.11  0.00  0.89  0.00  0.00  0.00  0.76  0.00
  HS02004852HS02004856    1.00   0.06  0.01  0.00  0.92  0.00  0.00  0.00  0.83  0.00
  HS02004802HS02004478    1.00   0.07  0.01  0.00  0.92  0.00  0.00  0.00  0.01  0.00
  HS02004478WS02006287    1.00   0.09  0.00  0.00  0.88  0.03  0.00  0.00  0.81  0.00
  HS02004817HS02004807    1.00   0.00  0.07  0.00  0.93  0.00  0.00  0.00  0.00  0.00
  HS02004807HS02004802    1.00   0.07  0.00  0.00  0.93  0.00  0.00  0.01  0.01  0.00
  YS02001759YS02001757    1.00   0.00  0.00  0.00  1.00  0.00  0.00  0.00  0.18  0.00
  YS02001762YS02001759    1.00   0.00  0.00  0.00  1.00  0.00  0.00  0.00  0.04  0.00
  YS02001765YS02001762    1.00   0.00  0.00  0.00  1.00  0.00  0.00  0.00  0.21  0.00
  YS02001770YS02001767    1.00   0.00  0.00  0.00  1.00  0.00  0.00  0.00  0.00  0.00
  YS02001774YS02001770    1.00   0.00  0.08  0.00  0.92  0.00  0.00  0.00  0.06  0.00
  YS02001779YS02001774    1.00   0.00  0.00  0.00  1.00  0.00  0.00  0.00  0.25  0.00
  YS02001649YS02001757    1.00   0.00  0.00  0.00  1.00  0.00  0.00  0.00  0.19  0.00
  YS02001767YS02001765    1.00   0.00  0.00  0.00  1.00  0.00  0.00  0.00  0.01  0.00
  YS02006561YS02001783    1.00   0.12  0.00  0.00  0.02  0.86  0.00  0.00  0.74  0.00
  YS02001783YS02001784    1.00   0.00  0.12  0.00  0.88  0.00  0.00  0.00  0.01  0.00
  YS02001784YS02001785    1.00   0.00  0.00  0.00  1.00  0.00  0.00  0.00  0.24  0.00
  YS02001788YS02001790    1.00   0.00  0.00  0.00  0.17  0.83  0.00  0.00  0.81  0.00
  YS02001790YS02001791    1.00   0.00  0.00  0.00  0.06  0.94  0.00  0.00  0.41  0.00
  YS02001791YS02001793    1.00   0.00  0.00  0.00  0.12  0.88  0.00  0.00  0.07  0.00
  YS02001910YS02001907    1.00   0.00  0.00  0.00  0.99  0.00  0.00  0.01  0.13  0.00
  YS02001786YS02001788    1.00   0.00  0.00  0.00  0.16  0.84  0.00  0.00  0.00  0.00
  YS02001915YS02001910    1.00   0.00  0.00  0.00  0.99  0.01  0.00  0.00  0.23  0.00
  YS02001918YS02001915    1.00   0.00  0.00  0.00  0.99  0.01  0.00  0.00  0.83  0.00
  YS02001923YS02001920    1.00   0.00  0.00  0.00  1.00  0.00  0.00  0.00  1.00  0.00
  YS02001926YS02001923    1.00   0.00  0.03  0.00  0.00  0.00  0.97  0.00  0.00  0.00
  YS02001929YS02001926    1.00   0.00  0.06  0.00  0.94  0.00  0.00  0.00  0.86  0.00
  YS02001920YS02001918    1.00   0.00  0.00  0.00  1.00  0.00  0.00  0.00  0.00  0.00
  YS02001629YS02163301    1.00   0.10  0.01  0.00  0.90  0.00  0.00  0.00  0.00  0.00
  YS02001619YS02001622    1.00   0.06  0.00  0.00  0.94  0.00  0.00  0.00  0.00  0.00
  YS02001622YS02001625    1.00   0.06  0.00  0.00  0.94  0.00  0.00  0.00  0.12  0.00
  YS02001625YS02001629    1.00   0.07  0.06  0.00  0.85  0.00  0.03  0.00  0.00  0.00
  YS02163301YS02001633    1.00   0.00  0.10  0.00  0.90  0.00  0.00  0.00  0.00  0.00
  YS02163601YS02164001    1.00   0.00  0.03  0.00  0.97  0.00  0.00  0.00  0.00  0.00
  YS02164001YS02001641    1.00   0.00  0.03  0.00  0.96  0.00  0.00  0.00  0.07  0.00
  YS02001641YS02001644    1.00   0.00  0.00  0.00  1.00  0.00  0.00  0.00  0.00  0.00
  YS02001647YS02001649    1.00   0.00  0.12  0.00  0.88  0.00  0.00  0.00  0.01  0.00
  YS02006553YS02006556    1.00   0.01  0.00  0.00  0.99  0.00  0.00  0.00  0.03  0.00
  YS02006556YS02006558    1.00   0.00  0.00  0.00  1.00  0.00  0.00  0.00  0.00  0.00
  YSB6556YSB1171          1.00   0.02  0.04  0.00  0.94  0.00  0.00  0.00  0.00  0.00
  YS02001907YS02006553    1.00   0.00  0.01  0.00  0.99  0.00  0.00  0.00  0.00  0.00
  YS02006558YS02006561    1.00   0.12  0.00  0.00  0.00  0.88  0.00  0.00  0.73  0.00
  YS02001633YS02163601    1.00   0.00  0.00  0.00  1.00  0.00  0.00  0.00  0.19  0.00
  YS02001644YS02001647    1.00   0.00  0.12  0.00  0.88  0.00  0.00  0.00  0.00  0.00
  YS02001745YS02001748    1.00   0.00  0.00  0.00  0.77  0.03  0.00  0.20  0.16  0.00
  YS02001748YS02001751    1.00   0.00  0.00  0.00  0.94  0.06  0.00  0.00  0.23  0.00
  YS02001751YS02001754    1.00   0.00  0.00  0.00  0.87  0.00  0.00  0.13  0.02  0.00
  YS02001754YS02001757    1.00   0.00  0.00  0.00  1.00  0.00  0.00  0.00  0.25  0.00
  YS02001882YS02001884    1.00   0.09  0.01  0.00  0.90  0.00  0.00  0.00  0.00  0.00
  YS02001884YS02001887    1.00   0.03  0.03  0.00  0.94  0.00  0.00  0.00  0.00  0.00
  YS02001890YS02001895    1.00   0.00  0.10  0.00  0.90  0.00  0.00  0.00  0.00  0.00
  YS02001895YS02001898    1.00   0.10  0.00  0.00  0.88  0.00  0.02  0.00  0.00  0.00
  YS02001898YS02001901    1.00   0.10  0.01  0.00  0.90  0.00  0.00  0.00  0.02  0.00
  YS02001901YS02001904    1.00   0.10  0.00  0.00  0.90  0.00  0.00  0.00  0.00  0.00
  YS02001904YS02001907    1.00   0.00  0.10  0.00  0.90  0.00  0.00  0.00  0.00  0.00
  YS02001887YS02001890    1.00   0.00  0.00  0.00  0.99  0.00  0.01  0.00  0.00  0.00
  YS02001652YS02001649    1.00   0.00  0.00  0.00  1.00  0.00  0.00  0.00  0.25  0.00
  YS02001655YS02001652    1.00   0.00  0.00  0.00  0.87  0.00  0.00  0.13  0.02  0.00
  YS02001658YS02001655    1.00   0.00  0.08  0.00  0.85  0.07  0.00  0.00  0.15  0.00
  YS02001661YS02001658    1.00   0.08  0.00  0.00  0.77  0.14  0.00  0.00  0.22  0.00
  YS02001664YS02001661    1.00   0.06  0.00  0.00  0.89  0.05  0.00  0.00  0.56  0.00
  YSB1154YSB6556          1.00   0.06  0.00  0.00  0.94  0.00  0.00  0.00  0.02  0.00
  YSB1174YSB1171          1.00   0.02  0.02  0.00  0.96  0.00  0.00  0.00  0.00  0.00
  YSB1171HS02004479       1.00   0.02  0.00  0.00  0.98  0.00  0.00  0.01  0.13  0.00
  HS02004881HS02006253    1.00   0.02  0.00  0.00  0.26  0.00  0.00  0.71  0.09  0.00
  YS02001793JiankangQianchi    1.00   0.00  0.00  0.00  0.73  0.27  0.00  0.00  0.58  0.00
  YS02001757CaochengTiaoxuchi    1.00   0.00  0.15  0.00  0.85  0.00  0.00  0.00  0.00  0.00
  WSF200WS02003060        1.00   0.00  0.02  0.00  0.75  0.24  0.00  0.00  0.74  0.00
  1                       1.00   0.00  0.00  0.00  0.00  1.00  0.00  0.00  0.45  0.00
  
  
  *************************
  Conduit Surcharge Summary
  *************************
  
  ----------------------------------------------------------------------------
                                                           Hours        Hours 
                         --------- Hours Full --------   Above Full   Capacity
  Conduit                Both Ends  Upstream  Dnstream   Normal Flow   Limited
  ----------------------------------------------------------------------------
  WS02006229WS02006228        0.01      0.01      0.01      0.42         0.01
  WS02006256WS02006235        3.58      3.58      6.02      2.68         0.01
  WS02006252WS02006251        0.05      0.05      0.13      0.11         0.01
  WS02006251WS02006249        0.01      0.01      0.01      0.04         0.01
  WS02006249WS02006248        0.01      0.01      0.01      0.41         0.01
  WS02006247WS02006245        0.01      0.01      0.01      0.77         0.01
  WS02006245WS02006243        0.01      0.01      0.01      0.03         0.01
  WS02006242WS02006240        0.01      0.01      0.01      0.12         0.01
  WS02006240WS02006239        0.01      0.01      0.01      0.03         0.01
  WS02006239WS02006238        0.01      0.01      0.01      0.03         0.01
  WS02006235WS02006234        0.01      0.01      0.01      3.45         0.01
  WS02006231WS02006230        0.01      0.01      0.01      3.73         0.01
  WS02006230WS02006229        0.14      0.29      0.14      4.30         0.14
  WS02006228WS02006109        0.01      0.01      0.01      1.68         0.01
  WS02006111WS02006112        0.01      0.01      0.49      0.01         0.01
  WS02004404WS02004405        0.01      0.01      0.01      4.27         0.01
  WS02003072WS02003073        0.01      0.01      0.01      3.24         0.01
  YS02001759YS02001757        4.80      4.80      5.18      0.01         0.01
  YS02001762YS02001759        4.66      4.66      4.80      0.01         0.01
  YS02001765YS02001762        4.49      4.49      4.66      0.01         0.01
  YS02001770YS02001767        4.35      4.35      4.37      0.01         0.11
  YS02001774YS02001770        4.25      4.25      4.59      0.01         0.01
  YS02001779YS02001774        3.69      3.69      4.59      0.01         0.01
  YS02001649YS02001757        4.70      4.70      5.18      0.01         0.01
  YS02001767YS02001765        4.37      4.37      4.49      0.01         0.01
  YS02001788YS02001790        0.01      0.01      0.15      0.01         0.01
  YS02001790YS02001791        0.15      0.15      0.32      0.01         0.01
  YS02001791YS02001793        0.32      0.32      0.64      0.01         0.01
  YS02001629YS02163301        4.18      4.18      4.29      0.01         0.01
  YS02001619YS02001622        2.66      2.66      2.78      0.01         0.01
  YS02001622YS02001625        2.78      2.78      3.99      0.01         0.01
  YS02001625YS02001629        2.66      2.66      3.99      0.01         0.01
  YS02163301YS02001633        4.29      4.29      4.49      0.01         0.01
  YS02163601YS02164001        4.47      4.47      4.68      0.01         0.01
  YS02164001YS02001641        4.47      4.47      4.54      0.01         0.01
  YS02001641YS02001644        4.54      4.54      4.56      0.01         0.16
  YS02001647YS02001649        3.96      3.96      4.70      0.01         0.01
  YS02001633YS02163601        4.43      4.43      4.68      0.01         0.01
  YS02001644YS02001647        3.96      3.96      4.56      0.01         0.01
  YS02001748YS02001751        0.01      0.01      2.89      0.01         0.01
  YS02001751YS02001754        2.89      2.89      3.79      0.01         0.01
  YS02001754YS02001757        3.97      3.97      5.18      0.01         0.01
  YS02001652YS02001649        4.01      4.01      4.70      0.01         0.01
  YS02001655YS02001652        3.02      3.02      3.90      0.01         0.01
  YS02001658YS02001655        0.01      0.01      3.02      0.01         0.01
  YS02001793JiankangQianchi        0.55      0.55      4.17      0.01         0.01
  YS02001757CaochengTiaoxuchi        1.93      1.93      5.18      0.01         0.01
  
  
  ***************
  Pumping Summary
  ***************
  
  ---------------------------------------------------------------------------------------------------------
                                                  Min       Avg       Max     Total     Power    % Time Off
                        Percent   Number of      Flow      Flow      Flow    Volume     Usage    Pump Curve
  Pump                 Utilized   Start-Ups       LPS       LPS       LPS  10^6 ltr     Kw-hr    Low   High
  ---------------------------------------------------------------------------------------------------------
  CC-Pump-1               19.15           3      0.00    125.66    200.00     0.600      0.91    0.0    0.0
  CC-Pump-2                4.26           1      0.00    106.74    199.92     0.120      0.22    0.0    0.0
  JK-Pump-1               40.43           5      0.00    125.85    300.00     1.315     23.07    0.0    0.0
  JK-Pump-2               36.18           5      0.00    188.69    683.00     1.890     33.12    0.0   95.7
  XR-Pump-1               78.74           4      0.00     87.07     95.00     1.853     37.24    0.0    0.0
  XR-Pump-2               70.23           5      0.00     86.59     95.00     1.625     32.93    0.0    0.0
  XR-Pump-3               70.23           5      0.00     86.59     95.00     1.625     32.93    0.0    0.0
  XR-Pump-4               70.23           5      0.00     86.59     95.00     1.625     32.93    0.0    0.0
  
  
  ***************************
  Link Pollutant Load Summary
  ***************************
  
  ------------------------------------------------------------------------------------------
                                 COD            SS            TN            TP         NH4-N
  Link                            kg            kg            kg            kg            kg
  ------------------------------------------------------------------------------------------
  WS02003066WSF200           194.639       319.981         9.713         1.067         5.698
  WS02006287WS02006284        93.483       156.359         6.008         0.706         3.631
  WS02006284WS02006280        93.907       157.041         6.047         0.711         3.655
  WS02006280WS02006229        93.889       157.010         6.046         0.710         3.655
  WS02006229WS02006228       192.923       316.818         9.299         1.010         5.429
  WS02006256WS02006235        54.454        87.044         2.119         0.212         1.199
  WS02006253WS02006251        11.024        19.273         0.332         0.029         0.177
  WS02006252WS02006251        36.549        58.414         0.888         0.066         0.443
  WS02006251WS02006249        46.090        75.331         1.204         0.095         0.615
  WS02006249WS02006248        45.771        74.810         1.190         0.094         0.607
  WS02006248WS02006247        46.025        75.227         1.200         0.095         0.613
  WS02006247WS02006245        46.213        75.530         1.211         0.096         0.619
  WS02006245WS02006243        46.412        75.872         1.219         0.097         0.624
  WS02006243WS02006242        48.122        78.703         1.271         0.102         0.652
  WS02006242WS02006240        50.735        83.005         1.343         0.108         0.690
  WS02006240WS02006239        53.809        87.962         1.452         0.118         0.751
  WS02006239WS02006238        57.739        94.161         1.615         0.135         0.844
  WS02006238WS02006235        60.317        98.191         1.722         0.146         0.905
  WS02006235WS02006234        99.411       160.453         3.282         0.303         1.791
  WS02006234WS02006232        99.788       161.048         3.298         0.305         1.801
  WS02006232WS02006231        99.551       160.667         3.288         0.304         1.795
  WS02006231WS02006230        99.083       159.925         3.266         0.302         1.783
  WS02006230WS02006229        99.393       160.394         3.282         0.303         1.792
  WS02006228WS02006109       192.922       316.825         9.288         1.009         5.421
  WS02006116WS02004401       200.675       329.499         9.943         1.090         5.827
  WS02006115WS02006116       201.030       330.055         9.959         1.092         5.836
  WS02006113WS02006111       200.331       328.689        10.001         1.098         5.867
  WS02006112WS02006115       201.698       331.136        10.002         1.097         5.862
  WS02006111WS02006112       200.254       328.564         9.995         1.097         5.863
  WS02006110WS02006113       200.650       329.205        10.026         1.101         5.882
  WS02006109WS02006110       201.544       330.644        10.099         1.110         5.927
  WS02004411WS02004412       196.942       323.653         9.831         1.080         5.768
  WS02004401WS02004402       200.018       328.442         9.907         1.086         5.806
  WS02004413WS02003067       195.031       320.572         9.732         1.069         5.709
  WS02004412WS02004413       196.153       322.412         9.794         1.076         5.746
  WS02004410WS02004411       197.482       324.495         9.855         1.083         5.782
  WS02004409WS02004410       198.018       325.345         9.880         1.085         5.796
  WS02004407WS02004409       198.293       325.757         9.889         1.086         5.801
  WS02004406WS02004407       198.200       325.576         9.879         1.085         5.795
  WS02004405WS02004406       199.500       327.664         9.962         1.095         5.845
  WS02004404WS02004405       199.659       327.872         9.942         1.091         5.831
  WS02004403WS02004404       198.921       326.692         9.853         1.080         5.774
  WS02004402WS02004403       199.528       327.670         9.885         1.084         5.793
  WS02004139WS02001211      1169.156      1871.538       110.748        13.810        69.115
  WS02004138WS02004139      1168.652      1870.733       110.697        13.803        69.083
  WS02003067WS02003066       194.738       320.140         9.718         1.068         5.702
  WS02001213WS02003059      1213.422      1942.361       114.993        14.341        71.769
  WS02001212WS02001213      1217.579      1949.013       115.396        14.391        72.020
  WS02001211WS02001212      1217.747      1949.283       115.413        14.393        72.031
  WS02003072WS02003073      1520.682      2442.588       135.624        16.774        84.295
  WS02003069WS02003072      1522.881      2446.150       135.801        16.796        84.405
  WS02003060WS02003069      1521.996      2444.704       135.685        16.781        84.331
  WS02003059WS02003060      1214.784      1944.537       115.096        14.353        71.831
  HS02004901HS02004770         1.863         3.278         0.037         0.003         0.017
  HS02004876HS02004881         7.790        13.784         0.261         0.024         0.141
  HS02004870HS02004876         6.133        10.788         0.236         0.023         0.131
  HS02004842HS02004848         1.059         1.805         0.024         0.002         0.011
  HS02004837HS02004842         5.705         9.220         0.490         0.060         0.303
  HS02004830HS02004837        47.114        76.156         4.204         0.521         2.616
  HS02004824HS02004830        47.866        77.358         4.276         0.530         2.661
  HS02004817HS02004824        52.009        84.644         4.391         0.539         2.720
  HS02004770HS02004777         7.304        12.962         0.164         0.011         0.074
  HS02004799HS02004480        35.711        60.389         1.817         0.202         1.061
  HS02004792HS02004799        33.787        56.710         1.829         0.206         1.076
  HS02004788HS02004792        23.190        38.812         1.475         0.171         0.884
  HS02004785HS02004788         8.799        15.365         0.316         0.030         0.170
  HS02004777HS02004785         8.290        14.547         0.269         0.024         0.141
  HS02004480HS02004478        41.416        70.831         1.870         0.203         1.078
  HS02004479HS02004480        10.096        17.448         0.471         0.053         0.278
  HS02004862HS02004870         4.671         8.038         0.206         0.021         0.117
  HS02004848HS02004852         1.126         1.933         0.026         0.002         0.012
  HS02004856HS02004862         2.280         4.084         0.049         0.003         0.023
  HS02004852HS02004856         1.123         1.928         0.026         0.002         0.012
  HS02004802HS02004478        52.373        86.024         4.166         0.507         2.570
  HS02004478WS02006287        93.663       156.651         6.024         0.708         3.641
  HS02004817HS02004807        50.629        82.437         4.260         0.522         2.638
  HS02004807HS02004802        53.066        87.130         4.233         0.515         2.612
  YS02001759YS02001757        66.608       107.445         1.694         0.128         0.868
  YS02001762YS02001759        36.138        58.879         1.064         0.087         0.564
  YS02001765YS02001762        35.825        58.297         1.084         0.090         0.578
  YS02001770YS02001767        33.635        54.690         0.801         0.053         0.397
  YS02001774YS02001770         3.872         6.352         0.102         0.008         0.052
  YS02001779YS02001774         3.054         4.978         0.148         0.016         0.086
  YS02001649YS02001757        95.068       148.614         2.217         0.163         1.075
  YS02001767YS02001765        36.019        58.562         1.105         0.093         0.591
  YS02006561YS02001783       152.341       244.716         5.091         0.477         2.801
  YS02001783YS02001784       152.277       244.622         5.088         0.476         2.799
  YS02001784YS02001785       159.659       256.450         5.801         0.565         3.245
  YS02001788YS02001790       160.450       257.738         5.883         0.576         3.297
  YS02001790YS02001791       161.675       259.716         6.002         0.591         3.371
  YS02001791YS02001793       161.687       259.740         6.000         0.590         3.370
  YS02001910YS02001907        58.241        92.701         2.890         0.305         1.685
  YS02001786YS02001788       159.903       256.851         5.829         0.569         3.263
  YS02001915YS02001910        58.137        92.478         2.852         0.299         1.660
  YS02001918YS02001915        34.555        53.944         2.291         0.269         1.391
  YS02001923YS02001920        14.526        21.885         0.356         0.027         0.181
  YS02001926YS02001923        14.147        21.274         0.317         0.022         0.157
  YS02001929YS02001926        13.849        20.788         0.285         0.018         0.136
  YS02001920YS02001918        34.473        53.808         2.274         0.267         1.380
  YS02001629YS02163301        15.836        24.897         0.374         0.023         0.172
  YS02001619YS02001622        18.625        29.065         0.441         0.027         0.202
  YS02001622YS02001625        17.761        27.808         0.419         0.025         0.192
  YS02001625YS02001629        16.738        26.300         0.394         0.024         0.181
  YS02163301YS02001633        15.550        24.459         0.367         0.023         0.170
  YS02163601YS02164001        45.726        71.215         1.110         0.083         0.549
  YS02164001YS02001641        45.267        70.496         1.087         0.081         0.535
  YS02001641YS02001644        45.476        70.835         1.081         0.080         0.531
  YS02001647YS02001649        72.525       112.565         1.619         0.117         0.785
  YS02006553YS02006556       112.595       180.492         4.085         0.400         2.292
  YS02006556YS02006558       112.553       180.405         4.055         0.396         2.272
  YSB6556YSB1171               4.851         8.479         0.170         0.018         0.097
  YS02001907YS02006553       112.514       180.370         4.080         0.399         2.289
  YS02006558YS02006561       152.346       244.715         5.091         0.476         2.801
  YS02001633YS02163601        46.274        71.991         1.093         0.079         0.534
  YS02001644YS02001647        73.241       113.590         1.636         0.118         0.793
  YS02001745YS02001748        28.015        44.762         0.794         0.059         0.411
  YS02001748YS02001751        27.554        44.121         0.804         0.062         0.420
  YS02001751YS02001754        26.892        43.142         0.795         0.062         0.417
  YS02001754YS02001757        27.899        44.801         0.962         0.084         0.524
  YS02001882YS02001884         0.362         0.555         0.013         0.001         0.007
  YS02001884YS02001887         1.405         2.219         0.043         0.004         0.024
  YS02001890YS02001895        55.299        89.132         1.221         0.098         0.621
  YS02001895YS02001898        55.179        88.960         1.216         0.097         0.618
  YS02001898YS02001901        55.079        88.821         1.213         0.097         0.616
  YS02001901YS02001904        55.164        88.990         1.233         0.099         0.629
  YS02001904YS02001907        55.954        90.300         1.327         0.111         0.688
  YS02001887YS02001890        56.128        90.413         1.285         0.105         0.660
  YS02001652YS02001649        24.366        38.805         0.628         0.048         0.302
  YS02001655YS02001652        25.212        40.088         0.654         0.050         0.314
  YS02001658YS02001655        24.750        39.252         0.564         0.037         0.256
  YS02001661YS02001658        25.557        40.360         0.584         0.038         0.263
  YS02001664YS02001661        26.285        41.346         0.604         0.040         0.272
  YSB1154YSB6556               4.340         7.666         0.107         0.010         0.057
  YSB1174YSB1171               3.373         5.980         0.117         0.012         0.066
  YSB1171HS02004479            9.991        17.289         0.459         0.052         0.271
  HS02004881HS02006253         8.729        15.518         0.277         0.025         0.149
  YS02001793JiankangQianchi       161.932       260.126         5.981         0.587         3.356
  YS02001757CaochengTiaoxuchi       183.080       291.106         4.501         0.335         2.249
  WSF200WS02003060           194.630       320.007         9.716         1.068         5.701
  1                         1532.404      2461.587       136.792        16.921        85.028
  CC-Pump-1                   30.265        48.338         0.733         0.054         0.365
  CC-Pump-2                    6.165         9.887         0.147         0.011         0.073
  JK-Pump-1                   43.509        69.461         1.682         0.168         0.950
  JK-Pump-2                   76.452       123.569         2.739         0.266         1.530
  XR-Pump-1                  325.205       520.584        30.790         3.839        19.214
  XR-Pump-2                  282.133       451.626        26.728         3.333        16.681
  XR-Pump-3                  282.133       451.626        26.728         3.333        16.681
  XR-Pump-4                  282.133       451.626        26.728         3.333        16.681
  

  Analysis begun on:  Sun Jul 11 00:09:51 2021
  Analysis ended on:  Sun Jul 11 00:09:53 2021
  Total elapsed time: 00:00:02