
  EPA STORM WATER MANAGEMENT MODEL - VERSION 5.1 (Build 5.3.0.dev0)
  --------------------------------------------------------------

  WARNING 04: minimum elevation drop used for Conduit WS02004404WS02004405
  WARNING 03: negative offset ignored for Link YS02001904YS02001907
  
  *********************************************************
  NOTE: The summary statistics displayed in this report are
  based on results found at every computational time step,  
  not just on results from each reporting time step.
  *********************************************************
  
  ****************
  Analysis Options
  ****************
  Flow Units ............... LPS
  Process Models:
    Rainfall/Runoff ........ YES
    RDII ................... NO
    Snowmelt ............... NO
    Groundwater ............ NO
    Flow Routing ........... YES
    Ponding Allowed ........ NO
    Water Quality .......... YES
  Infiltration Method ...... HORTON
  Flow Routing Method ...... DYNWAVE
  Surcharge Method ......... EXTRAN
  Starting Date ............ 08/28/2015 08:00:00
  Ending Date .............. 08/28/2015 15:50:00
  Antecedent Dry Days ...... 8.0
  Report Time Step ......... 00:01:00
  Wet Time Step ............ 00:01:00
  Dry Time Step ............ 00:01:00
  Routing Time Step ........ 5.00 sec
  Variable Time Step ....... YES
  Maximum Trials ........... 8
  Number of Threads ........ 4
  Head Tolerance ........... 0.001500 m
  
  
  **************************        Volume         Depth
  Runoff Quantity Continuity     hectare-m            mm
  **************************     ---------       -------
  Total Precipitation ......         3.047         6.671
  Evaporation Loss .........         0.000         0.000
  Infiltration Loss ........         0.632         1.383
  Surface Runoff ...........         1.823         3.991
  Final Storage ............         0.593         1.299
  Continuity Error (%) .....        -0.021
  
  
  **************************           COD            SS            TN            TP         NH4-N
  Runoff Quality Continuity             kg            kg            kg            kg            kg
  **************************    ----------    ----------    ----------    ----------    ----------
  Initial Buildup ..........     41378.656     70582.865      1804.177       168.684      1032.807
  Surface Buildup ..........        15.848        22.287         2.907         0.268         1.716
  Wet Deposition ...........         0.000         0.000         0.000         0.000         0.000
  Sweeping Removal .........         0.000         0.000         0.000         0.000         0.000
  Infiltration Loss ........        35.831        64.206         0.697         0.047         0.328
  BMP Removal ..............         0.000         0.000         0.000         0.000         0.000
  Surface Runoff ...........      1183.101      2055.627        23.655         1.549        11.165
  Remaining Buildup ........     40175.184     68484.649      1782.723       167.355      1023.026
  Continuity Error (%) .....         0.001         0.001         0.000         0.000         0.000
  
  
  **************************        Volume        Volume
  Flow Routing Continuity        hectare-m      10^6 ltr
  **************************     ---------     ---------
  Dry Weather Inflow .......         0.616         6.165
  Wet Weather Inflow .......         1.822        18.220
  Groundwater Inflow .......         0.000         0.000
  RDII Inflow ..............         0.000         0.000
  External Inflow ..........         0.102         1.024
  External Outflow .........         1.575        15.749
  Flooding Loss ............         0.574         5.742
  Evaporation Loss .........         0.000         0.000
  Exfiltration Loss ........         0.000         0.000
  Initial Stored Volume ....         0.076         0.761
  Final Stored Volume ......         0.598         5.976
  Continuity Error (%) .....        -4.962
  
  
  **************************           COD            SS            TN            TP         NH4-N
  Quality Routing Continuity            kg            kg            kg            kg            kg
  **************************    ----------    ----------    ----------    ----------    ----------
  Dry Weather Inflow .......      1541.201      2465.922       147.955        18.494        92.472
  Wet Weather Inflow .......      1182.711      2054.999        23.646         1.548        11.161
  Groundwater Inflow .......         0.000         0.000         0.000         0.000         0.000
  RDII Inflow ..............         0.000         0.000         0.000         0.000         0.000
  External Inflow ..........       183.418       293.469        17.608         2.201        11.005
  External Outflow .........      1910.535      3143.533       148.774        18.061        91.553
  Flooding Loss ............       337.902       578.301         8.047         0.638         4.101
  Exfiltration Loss ........         0.000         0.000         0.000         0.000         0.000
  Mass Reacted .............         0.000         0.000         0.000         0.000         0.000
  Initial Stored Mass ......         0.000         0.000         0.000         0.000         0.000
  Final Stored Mass ........       489.974       811.107        25.070         2.773        14.770
  Continuity Error (%) .....         5.810         5.846         3.869         3.471         3.677
  
  
  *************************
  Highest Continuity Errors
  *************************
  Node YS02001774 (29.99%)
  Node HS02004842 (22.61%)
  Node JK-storage (-21.99%)
  Node YS02001884 (14.95%)
  Node YSB1171 (4.94%)
  
  
  ***************************
  Time-Step Critical Elements
  ***************************
  Link WS02006252WS02006251 (62.95%)
  Link WS02006238WS02006235 (10.15%)
  Link YS02001793JiankangQianchi (7.01%)
  Link WS02006280WS02006229 (6.74%)
  Link YS02006556YS02006558 (5.06%)
  
  
  ********************************
  Highest Flow Instability Indexes
  ********************************
  Link WS02006113WS02006111 (47)
  Link YS02001619YS02001622 (28)
  Link YS02001629YS02163301 (26)
  Link YS02163301YS02001633 (26)
  Link YS02001774YS02001770 (26)
  
  
  *************************
  Routing Time Step Summary
  *************************
  Minimum Time Step           :     0.18 sec
  Average Time Step           :     1.30 sec
  Maximum Time Step           :     5.00 sec
  Percent in Steady State     :    -0.00
  Average Iterations per Step :     4.12
  Percent Not Converging      :    18.85
  
  
  ***************************
  Subcatchment Runoff Summary
  ***************************
  
  ------------------------------------------------------------------------------------------------------------------------------
                            Total      Total      Total      Total     Imperv       Perv      Total       Total     Peak  Runoff
                           Precip      Runon       Evap      Infil     Runoff     Runoff     Runoff      Runoff   Runoff   Coeff
  Subcatchment                 mm         mm         mm         mm         mm         mm         mm    10^6 ltr      LPS
  ------------------------------------------------------------------------------------------------------------------------------
  sub0                       6.67       0.00       0.00       0.44       6.16       0.02       6.18        0.01     1.96   0.927
  sub1                       6.67       0.00       0.00       0.72       5.85       0.01       5.86        0.04    11.52   0.879
  sub2                       6.67       0.00       0.00       2.46       4.12       0.01       4.13        0.04    10.38   0.619
  sub3                       6.67       0.00       0.00       2.46       4.09       0.01       4.09        0.09    21.78   0.614
  sub4                       6.67       0.00       0.00       0.73       5.71       0.01       5.71        0.12    24.74   0.856
  sub5                       6.67       0.00       0.00       0.45       6.11       0.01       6.12        0.07    20.48   0.918
  sub7                       6.67       0.00       0.00       0.58       6.01       0.02       6.03        0.02     6.91   0.904
  sub8                       6.67       0.00       0.00       0.58       6.00       0.02       6.02        0.04    12.43   0.902
  sub9                       6.67       0.00       0.00       0.58       6.00       0.02       6.01        0.03     9.24   0.902
  sub10                      6.67       0.00       0.00       0.52       6.05       0.01       6.07        0.07    20.31   0.909
  sub11                      6.67       0.00       0.00       0.52       6.07       0.02       6.09        0.07    23.25   0.912
  sub12                      6.67       0.00       0.00       0.84       5.76       0.03       5.78        0.05    18.70   0.867
  sub14                      6.67       0.00       0.00       0.58       6.00       0.02       6.01        0.06    18.12   0.901
  sub15                      6.67       0.00       0.00       1.99       4.61       0.02       4.63        0.08    24.74   0.693
  sub16                      6.67       0.00       0.00       2.18       4.43       0.03       4.46        0.05    16.70   0.668
  sub17                      6.67       0.00       0.00       2.11       4.49       0.02       4.52        0.04    13.62   0.677
  sub22                      6.67       0.00       0.00       2.85       3.76       0.02       3.78        0.24    79.29   0.567
  sub23                      6.67       0.00       0.00       2.45       4.16       0.02       4.18        0.20    67.12   0.626
  sub60                      6.67       0.00       0.00       0.80       4.39       0.00       4.39        1.33   129.46   0.658
  sub61                      6.67       0.00       0.00       1.13       4.59       0.00       4.59        1.41   161.77   0.688
  sub62                      6.67       0.00       0.00       0.53       4.95       0.00       4.95        1.52   165.50   0.742
  sub63                      6.67       0.00       0.00       1.93       4.05       0.00       4.05        1.23   150.77   0.607
  sub64                      6.67       0.00       0.00       1.00       4.20       0.00       4.20        1.28   123.01   0.630
  sub65                      6.67       0.00       0.00       0.87       4.26       0.00       4.26        1.31   124.88   0.639
  sub66                      6.67       0.00       0.00       1.93       3.64       0.00       3.64        1.12   112.59   0.546
  sub67                      6.67       0.00       0.00       0.53       5.34       0.00       5.34        1.65   211.70   0.800
  sub68                      6.67       0.00       0.00       0.93       4.85       0.00       4.85        1.49   178.70   0.728
  sub69                      6.67       0.00       0.00       1.00       5.14       0.00       5.14        1.20   176.59   0.771
  sub70                      6.67       5.25       0.00       4.02       6.58       0.03       6.61        1.51   150.51   0.555
  sub71                      6.67       0.00       0.00       0.53       4.77       0.00       4.77        1.13   115.68   0.716
  sub72                      6.67       0.00       0.00       0.47       3.55       0.00       3.55        0.72    56.57   0.532
  1                          6.67       6.44       0.00       1.32       6.94       1.29       8.23        1.93   147.49   0.628
  2                          6.67       0.00       0.00       2.92       1.54       0.47       2.01        0.80   108.93   0.301
  
  
  ****************************
  Subcatchment Washoff Summary
  ****************************
  
  ------------------------------------------------------------------------------------------
                                 COD            SS            TN            TP         NH4-N
  Subcatchment                    kg            kg            kg            kg            kg
  ------------------------------------------------------------------------------------------
  sub0                         1.091         2.066         0.018         0.001         0.009
  sub1                         4.413         8.465         0.082         0.006         0.039
  sub2                         2.520         4.651         0.055         0.004         0.025
  sub3                         6.105        11.114         0.131         0.009         0.060
  sub4                         9.666        18.413         0.196         0.011         0.094
  sub5                        10.200        19.325         0.178         0.013         0.086
  sub7                         2.334         4.570         0.044         0.003         0.021
  sub8                         3.502         6.990         0.070         0.004         0.034
  sub9                         2.975         5.858         0.058         0.004         0.028
  sub10                        8.447        16.218         0.153         0.011         0.074
  sub11                        8.371        16.306         0.155         0.010         0.075
  sub12                        7.034        13.483         0.125         0.009         0.060
  sub14                        6.327        12.340         0.119         0.008         0.057
  sub15                        7.450        13.845         0.145         0.010         0.067
  sub16                        4.749         8.837         0.091         0.007         0.042
  sub17                        4.356         8.034         0.080         0.006         0.037
  sub22                       21.998        40.013         0.423         0.031         0.196
  sub23                       13.428        25.347         0.294         0.019         0.133
  sub60                       76.113       131.324         1.595         0.093         0.761
  sub61                       96.289       165.838         1.847         0.121         0.886
  sub62                      101.294       177.589         2.059         0.124         0.985
  sub63                       71.956       122.341         1.522         0.103         0.697
  sub64                       91.517       151.983         1.735         0.122         0.822
  sub65                       93.805       156.457         1.793         0.123         0.852
  sub66                       54.685        91.797         1.198         0.075         0.554
  sub67                      152.529       265.968         2.755         0.197         1.326
  sub68                      107.969       188.270         2.138         0.138         1.015
  sub69                      100.839       178.901         1.932         0.131         0.918
  sub70                      153.939       272.191         3.191         0.213         1.476
  sub71                       66.918       118.210         1.453         0.080         0.692
  sub72                       45.487        74.085         0.885         0.058         0.424
  1                           86.931       154.919         1.858         0.125         0.847
  2                           12.643        20.973         0.400         0.024         0.167
  ------------------------------------------------------------------------------------------
  System                    1437.880      2506.719        28.778         1.893        13.560
  
  
  ******************
  Node Depth Summary
  ******************
  
  ---------------------------------------------------------------------------------
                                 Average  Maximum  Maximum  Time of Max    Reported
                                   Depth    Depth      HGL   Occurrence   Max Depth
  Node                 Type       Meters   Meters   Meters  days hr:min      Meters
  ---------------------------------------------------------------------------------
  WS02001211           JUNCTION     0.71     0.80     5.63     0  04:06        0.80
  WS02001212           JUNCTION     0.42     0.51     5.57     0  04:04        0.51
  WS02001213           JUNCTION     0.66     0.76     5.53     0  04:03        0.76
  WS02003069           JUNCTION     0.45     0.59     5.18     0  04:03        0.59
  WS02003072           JUNCTION     0.51     0.65     5.02     0  04:03        0.65
  WS02003073           JUNCTION     0.31     0.40     4.46     0  04:04        0.40
  WS02003060           JUNCTION     0.40     0.52     5.45     0  04:02        0.52
  WS02003066           JUNCTION     0.22     0.30     5.86     0  03:59        0.30
  WS02003059           JUNCTION     0.71     0.82     5.50     0  04:03        0.82
  WS02003067           JUNCTION     0.55     0.71     6.03     0  03:59        0.71
  WS02004401           JUNCTION     0.64     0.87     6.87     0  03:55        0.87
  WS02004402           JUNCTION     0.67     0.89     6.85     0  03:55        0.89
  WS02004403           JUNCTION     0.69     0.91     6.84     0  03:55        0.91
  WS02004404           JUNCTION     0.77     0.98     6.83     0  03:55        0.98
  WS02004406           JUNCTION     0.77     0.97     6.80     0  03:54        0.97
  WS02004409           JUNCTION     0.45     0.68     6.45     0  03:58        0.68
  WS02004410           JUNCTION     0.47     0.69     6.41     0  03:58        0.69
  WS02004411           JUNCTION     0.49     0.70     6.38     0  03:58        0.70
  WS02004412           JUNCTION     0.51     0.71     6.35     0  03:58        0.71
  WS02004413           JUNCTION     0.67     0.87     6.34     0  03:59        0.87
  WS02004405           JUNCTION     0.76     0.97     6.82     0  03:55        0.97
  WS02006109           JUNCTION     0.71     1.00     7.62     0  03:50        1.00
  WS02006110           JUNCTION     0.71     0.94     7.52     0  03:48        0.94
  WS02006111           JUNCTION     0.20     0.29     7.00     0  03:49        0.29
  WS02006112           JUNCTION     0.80     1.08     6.97     0  03:56        1.08
  WS02006113           JUNCTION     0.31     0.46     7.36     0  03:49        0.46
  WS02006115           JUNCTION     0.52     0.77     6.91     0  03:55        0.77
  WS02006116           JUNCTION     0.61     0.85     6.89     0  03:54        0.85
  WS02006230           JUNCTION     0.68     1.13     7.87     0  03:48        1.13
  WS02006231           JUNCTION     0.45     0.88     8.00     0  03:53        0.87
  WS02006232           JUNCTION     0.58     1.08     8.11     0  03:49        1.07
  WS02006234           JUNCTION     0.51     1.09     8.25     0  06:41        1.08
  WS02006235           JUNCTION     0.54     1.18     8.34     0  06:41        1.17
  WS02006238           JUNCTION     0.57     1.21     8.35     0  06:41        1.20
  WS02006240           JUNCTION     0.48     1.29     8.59     0  03:32        1.14
  WS02006242           JUNCTION     0.54     1.24     8.51     0  06:41        1.22
  WS02006243           JUNCTION     0.42     1.17     8.59     0  03:34        1.12
  WS02006245           JUNCTION     0.41     1.13     8.61     0  06:41        1.11
  WS02006247           JUNCTION     0.43     1.15     8.65     0  03:35        1.13
  WS02006248           JUNCTION     0.37     1.10     8.68     0  03:35        1.08
  WS02006249           JUNCTION     0.40     1.09     8.69     0  03:35        1.09
  WS02006239           JUNCTION     0.53     1.30     8.51     0  03:32        1.18
  WS02006251           JUNCTION     0.39     1.21     8.88     0  06:34        1.13
  WS02006252           JUNCTION     0.29     0.76     9.00     0  06:34        0.68
  WS02006253           JUNCTION     0.42     1.25     8.90     0  06:34        1.16
  WS02006256           JUNCTION     1.33     2.35     9.28     0  00:18        2.35
  WS02004138           JUNCTION     0.16     0.20     7.45     0  00:00        0.19
  WS02004139           JUNCTION     0.65     0.74     5.65     0  04:05        0.74
  WS02004407           JUNCTION     0.20     0.30     6.61     0  03:56        0.30
  WS02006228           JUNCTION     0.71     1.05     7.70     0  03:48        1.04
  WS02006229           JUNCTION     0.68     1.04     7.73     0  03:48        1.04
  WS02006280           JUNCTION     0.05     0.18     8.45     0  02:12        0.18
  WS02006284           JUNCTION     0.35     0.53     8.93     0  02:12        0.53
  WS02006287           JUNCTION     0.08     0.26     9.22     0  02:12        0.26
  WSF200               JUNCTION     0.20     0.31     5.54     0  03:58        0.31
  HS02004901           JUNCTION     0.11     0.27    10.09     0  02:10        0.27
  HS02004881           JUNCTION     0.01     0.03     9.06     0  02:11        0.03
  HS02004876           JUNCTION     0.03     0.11     9.14     0  02:06        0.11
  HS02004870           JUNCTION     0.01     0.05     9.34     0  02:12        0.05
  HS02004862           JUNCTION     0.01     0.06     9.45     0  02:13        0.06
  HS02004856           JUNCTION     0.07     0.12     9.54     0  02:13        0.12
  HS02004852           JUNCTION     0.01     0.04     9.55     0  02:13        0.04
  HS02004848           JUNCTION     0.01     0.04     9.64     0  02:12        0.04
  HS02004842           JUNCTION     0.33     0.37     9.64     0  02:12        0.37
  HS02004837           JUNCTION     0.03     0.06     9.64     0  02:12        0.06
  HS02004830           JUNCTION     0.04     0.07     9.54     0  02:12        0.07
  HS02004824           JUNCTION     0.02     0.05     9.45     0  02:15        0.05
  HS02004817           JUNCTION     0.42     0.57     9.42     0  02:13        0.57
  HS02004807           JUNCTION     0.11     0.24     9.41     0  02:13        0.24
  HS02004802           JUNCTION     0.15     0.28     9.41     0  02:12        0.28
  HS02004799           JUNCTION     0.10     0.31     9.52     0  02:10        0.31
  HS02004792           JUNCTION     0.02     0.13     9.65     0  02:10        0.13
  HS02004788           JUNCTION     0.02     0.09     9.99     0  02:11        0.09
  HS02004785           JUNCTION     0.03     0.16    10.06     0  02:10        0.16
  HS02004777           JUNCTION     0.13     0.29    10.09     0  02:10        0.29
  HS02004770           JUNCTION     0.10     0.26    10.09     0  02:10        0.26
  HS02004480           JUNCTION     0.06     0.25     9.49     0  02:11        0.25
  HS02004479           JUNCTION     0.10     0.28     9.49     0  02:11        0.28
  HS02004478           JUNCTION     0.05     0.16     9.39     0  02:12        0.16
  YS02001745           JUNCTION     0.67     0.86     8.37     0  04:28        0.86
  YS02001748           JUNCTION     1.07     1.31     8.38     0  03:40        1.29
  YS02001751           JUNCTION     1.25     1.52     8.39     0  03:40        1.50
  YS02001754           JUNCTION     1.50     1.80     8.41     0  03:40        1.78
  YS02001762           JUNCTION     1.69     2.02     8.42     0  03:40        2.00
  YS02001765           JUNCTION     1.64     1.97     8.42     0  03:32        1.94
  YS02001767           JUNCTION     1.61     1.94     8.43     0  03:32        1.90
  YS02001770           JUNCTION     1.60     1.94     8.43     0  03:32        1.89
  YS02001774           JUNCTION     1.67     1.99     8.41     0  03:32        1.95
  YS02001779           JUNCTION     1.42     1.68     8.37     0  03:17        1.68
  YS02001882           JUNCTION     0.32     0.61     7.33     0  02:46        0.61
  YS02001884           JUNCTION     0.41     0.71     7.33     0  02:38        0.71
  YS02001759           JUNCTION     1.72     2.05     8.42     0  03:40        2.04
  YS02001887           JUNCTION     0.49     0.79     7.33     0  02:41        0.79
  YS02001890           JUNCTION     0.52     0.82     7.32     0  02:46        0.82
  YS02001898           JUNCTION     0.29     0.58     7.31     0  02:47        0.57
  YS02001901           JUNCTION     0.41     0.70     7.31     0  02:47        0.70
  YS02001904           JUNCTION     0.39     0.68     7.31     0  02:45        0.68
  YS02001907           JUNCTION     0.72     1.03     7.32     0  02:49        1.02
  YS02001910           JUNCTION     0.51     0.80     7.31     0  02:45        0.80
  YS02001915           JUNCTION     0.31     0.59     7.31     0  02:45        0.59
  YS02001918           JUNCTION     0.10     0.24     7.30     0  02:45        0.24
  YS02001619           JUNCTION     1.21     1.48     8.41     0  03:21        1.45
  YS02001629           JUNCTION     1.55     1.85     8.40     0  03:21        1.83
  YS02001641           JUNCTION     1.66     1.93     8.37     0  03:20        1.93
  YS02001644           JUNCTION     1.66     1.92     8.35     0  03:20        1.92
  YS02001652           JUNCTION     1.51     2.00     8.60     0  03:28        1.87
  YS02001655           JUNCTION     1.27     1.91     8.76     0  03:26        1.66
  YS02001920           JUNCTION     0.20     0.31     7.31     0  02:46        0.31
  YS02001923           JUNCTION     0.08     0.11     7.37     0  03:01        0.11
  YS02001926           JUNCTION     0.16     0.22     7.66     0  03:01        0.22
  YS02001929           JUNCTION     0.08     0.11     7.81     0  03:01        0.11
  YS02001658           JUNCTION     1.01     1.84     8.98     0  03:28        1.40
  YS02001661           JUNCTION     0.78     1.77     9.17     0  03:28        1.17
  YS02001664           JUNCTION     0.33     0.56     8.49     0  03:40        0.56
  YS02001622           JUNCTION     1.23     1.50     8.40     0  03:21        1.48
  YS02001633           JUNCTION     1.65     1.94     8.40     0  03:21        1.92
  YS02001649           JUNCTION     1.70     2.05     8.44     0  03:26        2.03
  YS02001757           JUNCTION     1.82     2.16     8.42     0  03:40        2.14
  YS02001895           JUNCTION     0.29     0.57     7.32     0  02:47        0.57
  YS02001625           JUNCTION     1.51     1.78     8.38     0  03:20        1.78
  YS02163301           JUNCTION     1.58     1.88     8.40     0  03:21        1.86
  YS02163601           JUNCTION     1.70     1.99     8.39     0  03:21        1.97
  YS02164001           JUNCTION     1.64     1.92     8.38     0  03:20        1.90
  YS02001647           JUNCTION     1.49     1.80     8.41     0  03:26        1.78
  YSB1154              JUNCTION     0.24     0.43     9.49     0  02:11        0.43
  YSB6556              JUNCTION     0.13     0.32     9.49     0  02:11        0.32
  YSB1174              JUNCTION     0.19     0.38     9.49     0  02:11        0.38
  YSB1171              JUNCTION     0.39     0.59     9.49     0  02:11        0.59
  YS02006553           JUNCTION     0.72     1.03     7.32     0  02:49        1.02
  YS02006561           JUNCTION     0.16     0.34     7.00     0  02:40        0.32
  YS02006556           JUNCTION     0.69     0.99     7.30     0  02:42        0.99
  YS02006558           JUNCTION     0.74     1.04     7.31     0  02:41        1.04
  YS02001783           JUNCTION     0.30     0.85     6.99     0  02:23        0.81
  YS02001784           JUNCTION     0.34     0.99     7.06     0  02:23        0.86
  YS02001786           JUNCTION     0.30     0.85     6.88     0  02:23        0.83
  YS02001788           JUNCTION     0.25     0.98     6.96     0  02:23        0.82
  YS02001790           JUNCTION     0.34     1.88     7.53     0  04:48        1.09
  YS02001791           JUNCTION     0.31     1.83     7.30     0  04:45        1.19
  YS02001793           JUNCTION     0.42     2.01     6.84     0  04:45        1.79
  WSC                  OUTFALL      0.31     0.40     1.07     0  04:04        0.40
  JK-storage           STORAGE      2.18     5.80     6.60     0  02:22        5.80
  CC-storage           STORAGE      1.10     1.38     8.38     0  04:26        1.38
  XR-storage           STORAGE      3.27     6.15     4.15     0  07:26        6.15
  
  
  *******************
  Node Inflow Summary
  *******************
  
  -------------------------------------------------------------------------------------------------
                                  Maximum  Maximum                  Lateral       Total        Flow
                                  Lateral    Total  Time of Max      Inflow      Inflow     Balance
                                   Inflow   Inflow   Occurrence      Volume      Volume       Error
  Node                 Type           LPS      LPS  days hr:min    10^6 ltr    10^6 ltr     Percent
  -------------------------------------------------------------------------------------------------
  WS02001211           JUNCTION      7.35   389.66     0  04:30       0.207        8.67       0.462
  WS02001212           JUNCTION      0.00   392.00     0  04:30           0        8.63       0.288
  WS02001213           JUNCTION      0.00   394.29     0  04:30           0        8.61       0.317
  WS02003069           JUNCTION      0.32   960.49     0  04:02     0.00902        15.8       0.213
  WS02003072           JUNCTION      0.00   960.48     0  04:03           0        15.8       0.257
  WS02003073           JUNCTION      1.82   962.30     0  04:04      0.0514        15.8       0.294
  WS02003060           JUNCTION     16.53   960.20     0  04:02       0.466        15.9       0.202
  WS02003066           JUNCTION      0.00   556.81     0  03:59           0        6.86       0.064
  WS02003059           JUNCTION      0.00   398.03     0  04:29           0        8.59       0.466
  WS02003067           JUNCTION      0.00   556.81     0  03:59           0        6.87       0.133
  WS02004401           JUNCTION      0.00   557.86     0  03:53           0        7.09       0.288
  WS02004402           JUNCTION      0.00   557.64     0  03:53           0        7.07       0.273
  WS02004403           JUNCTION      0.00   557.48     0  03:54           0        7.05       0.251
  WS02004404           JUNCTION      0.16   557.56     0  03:55     0.00457        7.04       0.192
  WS02004406           JUNCTION      0.00   557.56     0  03:54           0           7       0.465
  WS02004409           JUNCTION      0.00   557.49     0  03:56           0        6.97       0.222
  WS02004410           JUNCTION      0.00   557.16     0  03:56           0        6.95       0.254
  WS02004411           JUNCTION      0.00   556.95     0  03:56           0        6.93       0.263
  WS02004412           JUNCTION      0.00   556.82     0  03:58           0        6.91       0.286
  WS02004413           JUNCTION      0.00   556.83     0  03:58           0        6.89       0.429
  WS02004405           JUNCTION      0.04   557.56     0  03:55     0.00107        7.02       0.283
  WS02006109           JUNCTION      1.23   559.52     0  03:48      0.0347        7.16       0.175
  WS02006110           JUNCTION      0.00   559.22     0  03:48           0        7.15       0.267
  WS02006111           JUNCTION      0.00   583.37     0  03:49           0        7.12       0.054
  WS02006112           JUNCTION     13.62   563.22     0  03:49      0.0388        7.15       0.412
  WS02006113           JUNCTION      0.00   559.56     0  03:48           0        7.13       0.118
  WS02006115           JUNCTION      0.00   563.25     0  03:49           0        7.12       0.269
  WS02006116           JUNCTION      0.00   558.30     0  03:53           0        7.11       0.230
  WS02006230           JUNCTION     10.28   536.80     0  06:41        0.29        5.93       0.156
  WS02006231           JUNCTION      0.00   525.60     0  06:41           0        5.65       0.213
  WS02006232           JUNCTION      0.00   524.93     0  06:41           0        5.66       0.249
  WS02006234           JUNCTION      0.00   524.53     0  06:34           0        5.66       0.117
  WS02006235           JUNCTION      0.00   524.37     0  06:34           0        5.72       0.157
  WS02006238           JUNCTION      0.00   336.44     0  06:40           0        3.16      -0.081
  WS02006240           JUNCTION      0.00   344.68     0  04:42           0        3.13       0.332
  WS02006242           JUNCTION      0.00   359.38     0  06:31           0        3.12       0.420
  WS02006243           JUNCTION      0.00   371.34     0  06:31           0         3.1      -0.113
  WS02006245           JUNCTION      0.00   378.09     0  06:31           0        3.11       0.596
  WS02006247           JUNCTION      0.00   383.29     0  06:31           0        3.12       0.245
  WS02006248           JUNCTION      0.00   388.45     0  06:31           0        3.12       0.036
  WS02006249           JUNCTION      0.00   421.14     0  06:34           0        3.27       0.430
  WS02006239           JUNCTION      0.00   335.98     0  06:40           0        3.14      -0.136
  WS02006251           JUNCTION      0.08   409.90     0  06:34     0.00217        3.33       0.245
  WS02006252           JUNCTION      0.00   400.00     0  03:50           0        3.06       0.017
  WS02006253           JUNCTION      1.96   120.63     0  06:33     0.00501       0.275       1.530
  WS02006256           JUNCTION      0.00   983.00     0  02:40           0        5.58       0.020
  WS02004138           JUNCTION      0.00   380.00     0  00:00           0        8.49       0.078
  WS02004139           JUNCTION      0.32   394.45     0  00:00     0.00905         8.5       0.533
  WS02004407           JUNCTION      0.00   557.51     0  03:55           0        6.97       0.097
  WS02006228           JUNCTION      0.00   558.14     0  03:48           0        7.13       0.144
  WS02006229           JUNCTION      0.00   557.72     0  03:49           0        7.15       0.201
  WS02006280           JUNCTION      0.00   319.49     0  02:12           0        1.24       0.005
  WS02006284           JUNCTION      0.10   319.47     0  02:12      0.0027        1.24       0.097
  WS02006287           JUNCTION      0.00   319.32     0  02:12           0        1.24       0.058
  WSF200               JUNCTION      0.00   556.82     0  03:59           0        6.85       0.058
  HS02004901           JUNCTION     16.70    16.70     0  02:07      0.0466      0.0468       3.902
  HS02004881           JUNCTION      6.91    63.44     0  02:11      0.0203       0.216       0.066
  HS02004876           JUNCTION     11.52    56.79     0  02:12       0.039       0.196       0.272
  HS02004870           JUNCTION     12.43    45.50     0  02:12      0.0384       0.157       0.067
  HS02004862           JUNCTION     10.58    33.76     0  02:12      0.0441       0.119       0.143
  HS02004856           JUNCTION      9.24    23.27     0  02:12      0.0289      0.0765       1.918
  HS02004852           JUNCTION      0.00    14.51     0  02:12           0      0.0477       0.109
  HS02004848           JUNCTION     21.78    21.78     0  02:14      0.0921      0.0921       0.047
  HS02004842           JUNCTION      0.00     7.91     0  02:22           0      0.0575      29.212
  HS02004837           JUNCTION     26.66    33.41     0  02:11       0.246        0.29       0.279
  HS02004830           JUNCTION      0.15    33.54     0  02:12     0.00423       0.281       0.441
  HS02004824           JUNCTION     24.79    58.12     0  02:15       0.121         0.4       0.134
  HS02004817           JUNCTION      0.60    58.71     0  02:15      0.0169       0.417       4.169
  HS02004807           JUNCTION     23.25    80.27     0  02:13      0.0707       0.471       0.906
  HS02004802           JUNCTION      0.00    80.75     0  02:14           0       0.466       0.878
  HS02004799           JUNCTION     18.12   203.47     0  02:10      0.0572        0.67       0.357
  HS02004792           JUNCTION     79.57   185.61     0  02:10       0.247       0.613       0.066
  HS02004788           JUNCTION     26.41   107.82     0  02:10       0.127       0.368       0.105
  HS02004785           JUNCTION      0.15    81.74     0  02:10     0.00423       0.243       0.198
  HS02004777           JUNCTION      0.03    82.04     0  02:09    0.000846       0.243       2.175
  HS02004770           JUNCTION     67.12    82.98     0  02:08       0.199       0.244       1.283
  HS02004480           JUNCTION      0.00   240.41     0  02:10           0       0.787       0.099
  HS02004479           JUNCTION      0.00    37.61     0  02:12           0       0.129       0.569
  HS02004478           JUNCTION      0.00   319.28     0  02:12           0        1.24       0.047
  YS02001745           JUNCTION    129.47   276.73     0  03:04        1.33        1.34       0.741
  YS02001748           JUNCTION      0.04   384.85     0  03:04     0.00127        1.34       1.634
  YS02001751           JUNCTION      0.01   393.21     0  02:38     0.00031        1.31       1.634
  YS02001754           JUNCTION      0.26   197.60     0  02:43     0.00733        1.29       1.963
  YS02001762           JUNCTION      0.00   205.94     0  02:39           0        1.43       1.511
  YS02001765           JUNCTION      0.00   201.00     0  02:39           0        1.43       1.747
  YS02001767           JUNCTION      0.54   197.67     0  02:39      0.0151        1.45       2.532
  YS02001770           JUNCTION    165.65   192.85     0  02:39        1.53        1.54       2.068
  YS02001774           JUNCTION      0.00    54.54     0  02:09           0      0.0844      42.831
  YS02001779           JUNCTION      0.01    36.91     0  02:18    0.000141       0.047      48.355
  YS02001882           JUNCTION      0.00     9.41     0  02:56           0      0.0105      21.958
  YS02001884           JUNCTION      0.00    15.25     0  02:04           0      0.0355      17.575
  YS02001759           JUNCTION    161.81   373.18     0  02:39        1.42        2.81       0.825
  YS02001887           JUNCTION    212.15   217.99     0  02:36        1.66        1.68       0.456
  YS02001890           JUNCTION      0.00   218.44     0  02:36           0        1.65       0.509
  YS02001898           JUNCTION      0.00   218.35     0  02:39           0        1.63       0.158
  YS02001901           JUNCTION      0.00   219.10     0  02:33           0        1.63       0.370
  YS02001904           JUNCTION      0.00   225.15     0  02:39           0        1.63       0.342
  YS02001907           JUNCTION      0.00   417.87     0  02:50           0        3.54       0.643
  YS02001910           JUNCTION      0.00   188.38     0  02:50           0        1.92       0.561
  YS02001915           JUNCTION    115.70   182.28     0  02:51        1.13        1.93       0.265
  YS02001918           JUNCTION      0.00    62.48     0  02:57           0       0.801       0.180
  YS02001619           JUNCTION    112.59   112.59     0  02:46        1.12        1.12       1.099
  YS02001629           JUNCTION      0.00   200.89     0  02:43           0        1.04       2.839
  YS02001641           JUNCTION      0.00   272.40     0  03:03           0        2.25       0.940
  YS02001644           JUNCTION    123.05   481.60     0  04:29        1.28        4.24       0.625
  YS02001652           JUNCTION      0.00   216.98     0  02:58           0        1.18       2.074
  YS02001655           JUNCTION      0.15   381.94     0  02:45     0.00434         1.2       1.891
  YS02001920           JUNCTION      2.87    59.47     0  03:01      0.0809       0.803       0.299
  YS02001923           JUNCTION      0.04    56.60     0  03:01     0.00106       0.723       0.054
  YS02001926           JUNCTION      0.05    56.61     0  03:01     0.00147       0.724       0.370
  YS02001929           JUNCTION     56.57    56.57     0  03:01       0.723       0.723       0.052
  YS02001658           JUNCTION      0.00   546.24     0  02:58           0        1.27       1.462
  YS02001661           JUNCTION      0.00   436.24     0  03:25           0         1.6       0.272
  YS02001664           JUNCTION    150.77   335.28     0  03:25        1.23        1.56       0.297
  YS02001622           JUNCTION      0.00   149.45     0  02:45           0         1.1       2.970
  YS02001633           JUNCTION    125.08   269.31     0  02:56        1.32        2.31       1.409
  YS02001649           JUNCTION      0.00   572.59     0  02:40           0        3.88       0.976
  YS02001757           JUNCTION      0.00   980.57     0  02:41           0        7.25       1.290
  YS02001895           JUNCTION      0.00   219.11     0  02:36           0        1.64       0.253
  YS02001625           JUNCTION      0.00   201.17     0  02:43           0        1.07       3.773
  YS02163301           JUNCTION      0.00   145.22     0  03:03           0        1.03       2.402
  YS02163601           JUNCTION      0.11   269.10     0  03:03      0.0031        2.27       1.337
  YS02164001           JUNCTION      0.00   269.84     0  03:03           0        2.25       0.918
  YS02001647           JUNCTION      0.00   394.82     0  03:03           0        2.95       0.957
  YSB1154              JUNCTION     20.48    20.48     0  02:10      0.0694      0.0705       2.089
  YSB6556              JUNCTION      0.00    20.43     0  02:11           0      0.0714       1.777
  YSB1174              JUNCTION     18.70    18.70     0  02:06      0.0505      0.0512       2.568
  YSB1171              JUNCTION      0.00    37.52     0  02:11           0       0.128       5.193
  YS02006553           JUNCTION      0.00   408.28     0  02:52           0        3.53       0.412
  YS02006561           JUNCTION      0.00   626.30     0  02:44           0        4.99      -0.001
  YS02006556           JUNCTION      0.00   405.66     0  02:50           0        3.53       0.299
  YS02006558           JUNCTION    179.58   597.10     0  02:38        1.52        5.02       0.102
  YS02001783           JUNCTION      0.00   590.86     0  02:40           0        4.99       0.034
  YS02001784           JUNCTION      1.06   587.28     0  02:38      0.0299        5.02       0.050
  YS02001786           JUNCTION      0.06   598.25     0  02:39     0.00159        5.02       0.053
  YS02001788           JUNCTION      0.07   658.30     0  02:39       0.002        5.02       0.034
  YS02001790           JUNCTION      0.15   709.66     0  02:39     0.00437        5.02       0.018
  YS02001791           JUNCTION      0.00   755.73     0  02:39           0        5.02       0.022
  YS02001793           JUNCTION      0.00   801.57     0  02:40           0        5.02      -0.046
  WSC                  OUTFALL       0.00   962.27     0  04:04           0        15.7       0.000
  JK-storage           STORAGE       0.00   803.52     0  02:40           0        5.18     -18.025
  CC-storage           STORAGE       0.00   984.26     0  02:41           0        6.62       0.930
  XR-storage           STORAGE     436.93   436.93     0  02:51        8.38        8.98      -0.978
  
  
  **********************
  Node Surcharge Summary
  **********************
  
  Surcharging occurs when water rises above the top of the highest conduit.
  ---------------------------------------------------------------------
                                               Max. Height   Min. Depth
                                   Hours       Above Crown    Below Rim
  Node                 Type      Surcharged         Meters       Meters
  ---------------------------------------------------------------------
  WS02006109           JUNCTION        1.87          0.183        1.637
  WS02006110           JUNCTION        0.67          0.028        1.822
  WS02006112           JUNCTION        0.77          0.082        1.598
  WS02006230           JUNCTION        0.59          0.047        1.523
  WS02006231           JUNCTION        0.89          0.168        1.362
  WS02006232           JUNCTION        1.59          0.375        1.105
  WS02006234           JUNCTION        1.16          0.373        0.867
  WS02006235           JUNCTION        1.36          0.469        0.821
  WS02006238           JUNCTION        1.40          0.490        0.940
  WS02006240           JUNCTION        1.13          0.584        0.806
  WS02006242           JUNCTION        1.17          0.511        0.309
  WS02006243           JUNCTION        1.03          0.465        0.305
  WS02006245           JUNCTION        0.94          0.416        0.434
  WS02006247           JUNCTION        0.94          0.441        0.319
  WS02006248           JUNCTION        0.81          0.376        0.004
  WS02006249           JUNCTION        0.84          0.390        0.000
  WS02006239           JUNCTION        1.17          0.560        0.730
  WS02006251           JUNCTION        0.55          0.177        1.003
  WS02006252           JUNCTION        1.58          0.361        0.739
  WS02006253           JUNCTION        0.56          0.215        2.265
  WS02006256           JUNCTION        6.53          2.050        0.000
  WS02006228           JUNCTION        1.81          0.216        1.984
  YS02001748           JUNCTION        4.67          0.225        0.965
  YS02001751           JUNCTION        4.95          0.515        0.685
  YS02001754           JUNCTION        5.35          0.748        0.402
  YS02001762           JUNCTION        5.56          1.020        0.130
  YS02001765           JUNCTION        5.54          0.969        0.131
  YS02001767           JUNCTION        5.52          0.940        0.090
  YS02001770           JUNCTION        5.51          0.906        0.014
  YS02001774           JUNCTION        5.55          0.992        0.058
  YS02001779           JUNCTION        5.28          0.680        0.000
  YS02001759           JUNCTION        5.57          1.054        0.156
  YS02001907           JUNCTION        0.14          0.024        0.926
  YS02001619           JUNCTION        4.91          0.479        0.131
  YS02001629           JUNCTION        4.92          0.470        0.000
  YS02001641           JUNCTION        5.55          0.930        0.170
  YS02001644           JUNCTION        5.55          0.920        0.000
  YS02001652           JUNCTION        5.39          0.974        0.156
  YS02001655           JUNCTION        5.00          0.906        0.294
  YS02001658           JUNCTION        4.71          0.837        0.463
  YS02001661           JUNCTION        0.03          0.695        0.695
  YS02001622           JUNCTION        4.97          0.499        0.121
  YS02001633           JUNCTION        5.53          0.923        0.137
  YS02001649           JUNCTION        5.56          1.050        0.000
  YS02001757           JUNCTION        5.62          1.159        0.051
  YS02001625           JUNCTION        5.48          0.780        0.000
  YS02163301           JUNCTION        5.52          0.883        0.147
  YS02163601           JUNCTION        5.56          0.988        0.092
  YS02164001           JUNCTION        5.53          0.919        0.181
  YS02001647           JUNCTION        5.43          0.801        0.099
  YS02006553           JUNCTION        0.44          0.032        1.158
  YS02001783           JUNCTION        0.01          0.045        1.555
  YS02001784           JUNCTION        0.07          0.190        1.300
  YS02001786           JUNCTION        0.01          0.049        1.381
  YS02001788           JUNCTION        0.01          0.179        1.301
  YS02001790           JUNCTION        0.78          1.084        0.073
  YS02001791           JUNCTION        0.88          1.032        0.888
  YS02001793           JUNCTION        1.08          1.011        1.589
  
  
  *********************
  Node Flooding Summary
  *********************
  
  Flooding refers to all water that overflows a node, whether it ponds or not.
  --------------------------------------------------------------------------
                                                             Total   Maximum
                                 Maximum   Time of Max       Flood    Ponded
                        Hours       Rate    Occurrence      Volume     Depth
  Node                 Flooded       LPS   days hr:min    10^6 ltr    Meters
  --------------------------------------------------------------------------
  WS02006249              0.54     94.92      0  06:34       0.138     0.000
  WS02006256              2.34    786.07      0  06:40       2.983     0.000
  YS02001779              1.09     32.84      0  04:32       0.023     0.000
  YS02001629              0.01      2.04      0  03:21       0.000     0.000
  YS02001644              2.99    480.63      0  04:29       1.976     0.000
  YS02001649              0.01     16.12      0  03:28       0.000     0.000
  YS02001625              0.02     12.06      0  03:20       0.000     0.000
  JK-storage              0.53    547.20      0  02:24       0.621     0.000
  
  
  **********************
  Storage Volume Summary
  **********************
  
  --------------------------------------------------------------------------------------------------
                         Average     Avg  Evap Exfil       Maximum     Max    Time of Max    Maximum
                          Volume    Pcnt  Pcnt  Pcnt        Volume    Pcnt     Occurrence    Outflow
  Storage Unit           1000 m3    Full  Loss  Loss       1000 m3    Full    days hr:min        LPS
  --------------------------------------------------------------------------------------------------
  JK-storage               0.110      38     0     0         0.291     100       0  02:22     983.00
  CC-storage               3.062      20     0     0         3.838      24       0  04:26     400.00
  XR-storage               0.393      42     0     0         0.738      80       0  07:26     380.00
  
  
  ***********************
  Outfall Loading Summary
  ***********************
  
  ---------------------------------------------------------------------------------------------------------------------------------
                         Flow       Avg       Max       Total         Total         Total         Total         Total         Total
                         Freq      Flow      Flow      Volume           COD            SS            TN            TP         NH4-N
  Outfall Node           Pcnt       LPS       LPS    10^6 ltr            kg            kg            kg            kg            kg
  ---------------------------------------------------------------------------------------------------------------------------------
  WSC                  100.00    606.66    962.27      15.749      1910.625      3143.675       148.783        18.062        91.559
  ---------------------------------------------------------------------------------------------------------------------------------
  System               100.00    606.66    962.27      15.749      1910.625      3143.675       148.783        18.062        91.559
  
  
  ********************
  Link Flow Summary
  ********************
  
  -----------------------------------------------------------------------------
                                 Maximum  Time of Max   Maximum    Max/    Max/
                                  |Flow|   Occurrence   |Veloc|    Full    Full
  Link                 Type          LPS  days hr:min     m/sec    Flow   Depth
  -----------------------------------------------------------------------------
  WS02003066WSF200     CONDUIT    556.82     0  03:59      2.86    0.09    0.23
  WS02006287WS02006284 CONDUIT    319.37     0  02:12      1.88    0.15    0.27
  WS02006284WS02006280 CONDUIT    319.49     0  02:12      2.12    0.13    0.25
  WS02006280WS02006229 CONDUIT    319.49     0  02:12      3.41    0.07    0.18
  WS02006229WS02006228 CONDUIT    558.14     0  03:48      1.11    1.85    1.00
  WS02006256WS02006235 CONDUIT    259.49     0  00:18      3.67    2.75    1.00
  WS02006253WS02006251 CONDUIT    120.07     0  06:33      0.58    0.36    1.00
  WS02006252WS02006251 CONDUIT    403.33     0  06:34      3.21    1.48    1.00
  WS02006251WS02006249 CONDUIT    421.14     0  06:34      1.14    1.21    1.00
  WS02006249WS02006248 CONDUIT    388.45     0  06:31      1.19    2.13    1.00
  WS02006248WS02006247 CONDUIT    383.29     0  06:31      1.17    0.83    1.00
  WS02006247WS02006245 CONDUIT    378.09     0  06:31      1.14    3.00    1.00
  WS02006245WS02006243 CONDUIT    371.34     0  06:31      1.19    1.10    1.00
  WS02006243WS02006242 CONDUIT    359.38     0  06:31      1.07    0.77    1.00
  WS02006242WS02006240 CONDUIT    344.68     0  04:42      1.01    1.37    1.00
  WS02006240WS02006239 CONDUIT    335.98     0  06:40      1.06    1.06    1.00
  WS02006239WS02006238 CONDUIT    336.44     0  06:40      0.96    1.08    1.00
  WS02006238WS02006235 CONDUIT    340.73     0  06:40      0.94    0.76    1.00
  WS02006235WS02006234 CONDUIT    524.53     0  06:34      1.36    5.53    1.00
  WS02006234WS02006232 CONDUIT    524.93     0  06:41      1.36    1.06    1.00
  WS02006232WS02006231 CONDUIT    525.60     0  06:41      1.37    1.10    1.00
  WS02006231WS02006230 CONDUIT    526.53     0  06:41      1.47    7.99    1.00
  WS02006230WS02006229 CONDUIT    540.79     0  06:41      1.41   12.03    1.00
  WS02006228WS02006109 CONDUIT    558.29     0  03:48      1.11    2.44    1.00
  WS02006116WS02004401 CONDUIT    557.86     0  03:53      0.96    0.77    0.86
  WS02006115WS02006116 CONDUIT    558.30     0  03:53      1.05    0.72    0.78
  WS02006113WS02006111 CONDUIT    583.37     0  03:49      2.50    0.70    0.47
  WS02006112WS02006115 CONDUIT    563.25     0  03:49      0.80    0.33    0.88
  WS02006111WS02006112 CONDUIT    562.89     0  03:49      1.56    0.27    0.68
  WS02006110WS02006113 CONDUIT    559.56     0  03:48      1.31    0.51    0.79
  WS02006109WS02006110 CONDUIT    559.22     0  03:48      1.11    1.08    1.00
  WS02004411WS02004412 CONDUIT    556.82     0  03:58      0.94    0.79    0.71
  WS02004401WS02004402 CONDUIT    557.64     0  03:53      0.96    0.67    0.88
  WS02004413WS02003067 CONDUIT    556.81     0  03:59      1.13    0.24    0.60
  WS02004412WS02004413 CONDUIT    556.83     0  03:58      0.84    0.37    0.79
  WS02004410WS02004411 CONDUIT    556.95     0  03:56      0.95    0.76    0.70
  WS02004409WS02004410 CONDUIT    557.16     0  03:56      1.00    0.72    0.69
  WS02004407WS02004409 CONDUIT    557.49     0  03:56      1.52    0.20    0.49
  WS02004406WS02004407 CONDUIT    557.51     0  03:55      1.06    0.25    0.63
  WS02004405WS02004406 CONDUIT    557.56     0  03:54      0.96    1.10    0.97
  WS02004404WS02004405 CONDUIT    557.52     0  03:55      1.13    5.46    0.97
  WS02004403WS02004404 CONDUIT    557.39     0  03:55      0.97    0.40    0.94
  WS02004402WS02004403 CONDUIT    557.48     0  03:54      0.99    0.80    0.90
  WS02004139WS02001211 CONDUIT    382.31     0  04:30      0.90    0.48    0.60
  WS02004138WS02004139 CONDUIT    394.13     0  00:00      3.62    0.08    0.44
  WS02003067WS02003066 CONDUIT    556.81     0  03:59      1.23    0.18    0.42
  WS02001213WS02003059 CONDUIT    398.03     0  04:29      0.89    0.66    0.78
  WS02001212WS02001213 CONDUIT    394.29     0  04:30      1.32    0.61    0.48
  WS02001211WS02001212 CONDUIT    392.00     0  04:30      0.78    0.30    0.65
  WS02003072WS02003073 CONDUIT    960.48     0  04:04      1.74    2.07    0.49
  WS02003069WS02003072 CONDUIT    960.48     0  04:03      1.63    0.46    0.52
  WS02003060WS02003069 CONDUIT    960.17     0  04:02      1.88    0.38    0.46
  WS02003059WS02003060 CONDUIT    403.30     0  04:29      0.95    0.26    0.67
  HS02004901HS02004770 CONDUIT     16.01     0  02:09      0.06    0.06    0.38
  HS02004876HS02004881 CONDUIT     56.82     0  02:11      0.82    0.60    0.10
  HS02004870HS02004876 CONDUIT     45.47     0  02:12      0.56    0.03    0.12
  HS02004842HS02004848 CONDUIT      7.91     0  02:22      0.04    0.00    0.29
  HS02004837HS02004842 CONDUIT      8.22     0  02:23      0.42    0.00    0.30
  HS02004830HS02004837 CONDUIT     33.39     0  02:12      0.51    0.03    0.09
  HS02004824HS02004830 CONDUIT     33.53     0  02:13      0.55    0.04    0.09
  HS02004817HS02004824 CONDUIT     58.11     0  02:15      0.19    0.03    0.44
  HS02004770HS02004777 CONDUIT     82.01     0  02:09      0.30    0.15    0.39
  HS02004799HS02004480 CONDUIT    203.21     0  02:10      0.74    0.26    0.39
  HS02004792HS02004799 CONDUIT    185.50     0  02:10      0.84    0.11    0.31
  HS02004788HS02004792 CONDUIT    107.74     0  02:11      0.97    0.07    0.16
  HS02004785HS02004788 CONDUIT     81.66     0  02:11      0.63    0.62    0.18
  HS02004777HS02004785 CONDUIT     81.59     0  02:10      0.36    0.10    0.32
  HS02004480HS02004478 CONDUIT    240.37     0  02:11      1.15    1.01    0.30
  HS02004479HS02004480 CONDUIT     37.87     0  02:12      0.17    0.04    0.38
  HS02004862HS02004870 CONDUIT     33.72     0  02:13      0.57    0.04    0.08
  HS02004848HS02004852 CONDUIT     14.51     0  02:12      0.39    0.02    0.05
  HS02004856HS02004862 CONDUIT     23.22     0  02:13      0.42    0.02    0.08
  HS02004852HS02004856 CONDUIT     14.47     0  02:13      0.19    0.02    0.11
  HS02004802HS02004478 CONDUIT     81.38     0  02:15      0.38    0.07    0.32
  HS02004478WS02006287 CONDUIT    319.32     0  02:12      1.58    0.09    0.22
  HS02004817HS02004807 CONDUIT     59.55     0  02:16      0.15    0.04    0.58
  HS02004807HS02004802 CONDUIT     80.75     0  02:14      0.32    0.15    0.36
  YS02001759YS02001757 CONDUIT    377.08     0  02:39      0.48    0.27    1.00
  YS02001762YS02001759 CONDUIT    211.45     0  02:39      0.27    0.24    1.00
  YS02001765YS02001762 CONDUIT    205.94     0  02:39      0.26    0.19    1.00
  YS02001770YS02001767 CONDUIT    197.14     0  02:39      0.30    0.78    1.00
  YS02001774YS02001770 CONDUIT     54.54     0  02:09      0.14    0.03    1.00
  YS02001779YS02001774 CONDUIT     36.90     0  02:18      0.07    0.02    1.00
  YS02001649YS02001757 CONDUIT    573.92     0  02:40      0.73    0.35    1.00
  YS02001767YS02001765 CONDUIT    201.00     0  02:39      0.27    0.25    1.00
  YS02006561YS02001783 CONDUIT    590.86     0  02:40      2.08    0.31    0.68
  YS02001783YS02001784 CONDUIT    586.22     0  02:38      1.52    0.81    1.00
  YS02001784YS02001785 CONDUIT    598.19     0  02:39      1.63    1.39    1.00
  YS02001788YS02001790 CONDUIT    709.51     0  02:39      2.16    0.52    1.00
  YS02001790YS02001791 CONDUIT    755.73     0  02:39      2.58    0.82    1.00
  YS02001791YS02001793 CONDUIT    801.57     0  02:40      5.26    0.34    1.00
  YS02001910YS02001907 CONDUIT    193.53     0  02:50      0.49    0.11    0.90
  YS02001786YS02001788 CONDUIT    658.23     0  02:39      2.09    1.27    1.00
  YS02001915YS02001910 CONDUIT    188.38     0  02:50      0.45    0.09    0.69
  YS02001918YS02001915 CONDUIT     67.24     0  02:51      0.44    0.04    0.41
  YS02001923YS02001920 CONDUIT     56.60     0  03:01      0.55    0.03    0.21
  YS02001926YS02001923 CONDUIT     56.56     0  03:01      0.62    0.08    0.17
  YS02001929YS02001926 CONDUIT     56.56     0  03:01      0.67    0.03    0.16
  YS02001920YS02001918 CONDUIT     62.48     0  02:57      0.55    0.06    0.27
  YS02001629YS02163301 CONDUIT    145.22     0  03:03      0.18    0.18    1.00
  YS02001619YS02001622 CONDUIT    149.45     0  02:45      0.71    0.22    1.00
  YS02001622YS02001625 CONDUIT    201.17     0  02:43      0.30    0.11    1.00
  YS02001625YS02001629 CONDUIT    200.89     0  02:43      0.29    0.10    1.00
  YS02163301YS02001633 CONDUIT    146.79     0  03:03      0.19    0.14    1.00
  YS02163601YS02164001 CONDUIT    269.84     0  03:03      0.34    0.24    1.00
  YS02164001YS02001641 CONDUIT    272.40     0  03:03      0.35    0.37    1.00
  YS02001641YS02001644 CONDUIT    274.24     0  03:03      0.35    0.89    1.00
  YS02001647YS02001649 CONDUIT    396.71     0  03:03      0.51    0.21    1.00
  YS02006553YS02006556 CONDUIT    405.66     0  02:50      0.52    0.35    0.98
  YS02006556YS02006558 CONDUIT    424.52     0  02:52      0.54    0.34    1.00
  YSB6556YSB1171       CONDUIT     20.76     0  02:13      0.08    0.02    0.65
  YS02001907YS02006553 CONDUIT    408.28     0  02:52      0.45    0.48    1.00
  YS02006558YS02006561 CONDUIT    626.30     0  02:44      3.05    1.38    0.71
  YS02001633YS02163601 CONDUIT    268.99     0  03:03      0.34    0.28    1.00
  YS02001644YS02001647 CONDUIT    394.82     0  03:03      0.50    0.23    1.00
  YS02001745YS02001748 CONDUIT    384.80     0  03:04      1.57    0.15    0.93
  YS02001748YS02001751 CONDUIT    393.20     0  02:38      1.19    0.20    1.00
  YS02001751YS02001754 CONDUIT    197.34     0  02:43      0.91    0.10    1.00
  YS02001754YS02001757 CONDUIT    199.25     0  02:42      0.33    0.08    1.00
  YS02001882YS02001884 CONDUIT     10.83     0  02:56      0.08    0.01    0.63
  YS02001884YS02001887 CONDUIT     15.25     0  02:04      0.05    0.02    0.72
  YS02001890YS02001895 CONDUIT    219.11     0  02:36      0.38    0.10    0.69
  YS02001895YS02001898 CONDUIT    218.35     0  02:39      0.50    0.38    0.56
  YS02001898YS02001901 CONDUIT    219.10     0  02:33      0.43    0.14    0.64
  YS02001901YS02001904 CONDUIT    225.15     0  02:39      0.40    0.35    0.69
  YS02001904YS02001907 CONDUIT    229.65     0  02:38      0.33    0.08    0.84
  YS02001887YS02001890 CONDUIT    218.44     0  02:36      0.34    0.37    0.78
  YS02001652YS02001649 CONDUIT    218.79     0  02:58      0.39    0.11    1.00
  YS02001655YS02001652 CONDUIT    216.98     0  02:58      0.94    0.11    1.00
  YS02001658YS02001655 CONDUIT    381.78     0  02:45      1.38    0.16    1.00
  YS02001661YS02001658 CONDUIT    546.24     0  02:58      1.65    0.21    1.00
  YS02001664YS02001661 CONDUIT    436.24     0  03:25      1.43    0.14    0.71
  YSB1154YSB6556       CONDUIT     20.43     0  02:11      0.19    0.04    0.54
  YSB1174YSB1171       CONDUIT     17.81     0  02:07      0.07    0.03    0.66
  YSB1171HS02004479    CONDUIT     37.61     0  02:12      0.54    0.03    0.51
  HS02004881HS02006253 CONDUIT     63.43     0  02:11      2.01    0.01    0.50
  YS02001793JiankangQianchi CONDUIT    803.52     0  02:40     16.29    0.06    1.00
  YS02001757CaochengTiaoxuchi CONDUIT    984.26     0  02:41      1.95    0.43    1.00
  WSF200WS02003060     CONDUIT    556.85     0  03:59      2.11    0.12    0.35
  1                    CONDUIT    962.27     0  04:04      3.29    0.34    0.40
  CC-Pump-1            PUMP       200.00     0  03:30              1.00
  CC-Pump-2            PUMP       200.00     0  03:50              1.00
  JK-Pump-1            PUMP       300.00     0  02:40              1.00
  JK-Pump-2            PUMP       683.00     0  02:40              1.00
  XR-Pump-1            PUMP        95.00     0  00:00              1.00
  XR-Pump-2            PUMP        95.00     0  00:00              1.00
  XR-Pump-3            PUMP        95.00     0  00:00              1.00
  XR-Pump-4            PUMP        95.00     0  00:00              1.00
  
  
  ***************************
  Flow Classification Summary
  ***************************
  
  -------------------------------------------------------------------------------------
                      Adjusted    ---------- Fraction of Time in Flow Class ---------- 
                       /Actual         Up    Down  Sub   Sup   Up    Down  Norm  Inlet 
  Conduit               Length    Dry  Dry   Dry   Crit  Crit  Crit  Crit  Ltd   Ctrl  
  -------------------------------------------------------------------------------------
  WS02003066WSF200        1.00   0.01  0.03  0.00  0.00  0.97  0.00  0.00  0.77  0.00
  WS02006287WS02006284    1.00   0.03  0.02  0.00  0.71  0.24  0.00  0.00  0.76  0.00
  WS02006284WS02006280    1.00   0.04  0.00  0.00  0.00  0.00  0.00  0.96  0.00  0.00
  WS02006280WS02006229    1.00   0.04  0.00  0.00  0.00  0.00  0.00  0.96  0.00  0.00
  WS02006229WS02006228    1.00   0.00  0.00  0.00  1.00  0.00  0.00  0.00  0.00  0.00
  WS02006256WS02006235    1.00   0.01  0.00  0.00  0.99  0.00  0.00  0.00  0.00  0.00
  WS02006253WS02006251    1.00   0.02  0.02  0.00  0.96  0.00  0.00  0.00  0.00  0.00
  WS02006252WS02006251    1.00   0.21  0.00  0.00  0.05  0.00  0.74  0.00  0.00  0.00
  WS02006251WS02006249    1.00   0.00  0.00  0.00  1.00  0.00  0.00  0.00  0.31  0.00
  WS02006249WS02006248    1.00   0.00  0.00  0.00  0.86  0.00  0.13  0.00  0.00  0.00
  WS02006248WS02006247    1.00   0.01  0.00  0.00  0.99  0.00  0.00  0.01  0.20  0.00
  WS02006247WS02006245    1.00   0.01  0.00  0.00  0.97  0.00  0.00  0.02  0.00  0.00
  WS02006245WS02006243    1.00   0.01  0.00  0.00  0.90  0.00  0.00  0.09  0.01  0.00
  WS02006243WS02006242    1.00   0.01  0.00  0.00  0.99  0.00  0.00  0.00  0.31  0.00
  WS02006242WS02006240    1.00   0.01  0.00  0.00  0.99  0.00  0.00  0.00  0.00  0.00
  WS02006240WS02006239    1.00   0.01  0.00  0.00  0.93  0.00  0.00  0.06  0.01  0.00
  WS02006239WS02006238    1.00   0.01  0.00  0.00  0.99  0.00  0.00  0.00  0.15  0.00
  WS02006238WS02006235    1.00   0.01  0.00  0.00  0.99  0.00  0.00  0.00  0.00  0.00
  WS02006235WS02006234    1.00   0.01  0.00  0.00  0.94  0.00  0.05  0.00  0.00  0.00
  WS02006234WS02006232    1.00   0.01  0.00  0.00  0.99  0.00  0.00  0.00  0.11  0.00
  WS02006232WS02006231    1.00   0.01  0.00  0.00  0.99  0.00  0.00  0.00  0.00  0.00
  WS02006231WS02006230    1.00   0.01  0.00  0.00  0.49  0.00  0.51  0.00  0.00  0.00
  WS02006230WS02006229    1.00   0.00  0.00  0.00  0.99  0.00  0.00  0.01  0.00  0.00
  WS02006228WS02006109    1.00   0.00  0.00  0.00  1.00  0.00  0.00  0.00  0.01  0.00
  WS02006116WS02004401    1.00   0.02  0.00  0.00  0.98  0.00  0.00  0.00  0.00  0.00
  WS02006115WS02006116    1.00   0.02  0.00  0.00  0.98  0.00  0.00  0.00  0.00  0.00
  WS02006113WS02006111    1.00   0.01  0.00  0.00  0.00  0.99  0.00  0.00  0.21  0.00
  WS02006112WS02006115    1.00   0.01  0.00  0.00  0.98  0.00  0.00  0.00  0.00  0.00
  WS02006111WS02006112    1.00   0.01  0.00  0.00  0.98  0.00  0.00  0.00  0.95  0.00
  WS02006110WS02006113    1.00   0.00  0.01  0.00  0.99  0.00  0.00  0.00  0.00  0.00
  WS02006109WS02006110    1.00   0.00  0.00  0.00  0.99  0.00  0.00  0.00  0.00  0.00
  WS02004411WS02004412    1.00   0.02  0.00  0.00  0.98  0.00  0.00  0.00  0.00  0.00
  WS02004401WS02004402    1.00   0.02  0.00  0.00  0.98  0.00  0.00  0.00  0.00  0.00
  WS02004413WS02003067    1.00   0.03  0.00  0.00  0.00  0.00  0.97  0.00  0.00  0.00
  WS02004412WS02004413    1.00   0.03  0.00  0.00  0.97  0.00  0.00  0.00  0.00  0.00
  WS02004410WS02004411    1.00   0.02  0.00  0.00  0.98  0.00  0.00  0.00  0.00  0.00
  WS02004409WS02004410    1.00   0.02  0.00  0.00  0.98  0.00  0.00  0.00  0.00  0.00
  WS02004407WS02004409    1.00   0.02  0.00  0.00  0.97  0.00  0.00  0.00  0.93  0.00
  WS02004406WS02004407    1.00   0.00  0.02  0.00  0.98  0.00  0.00  0.00  0.00  0.00
  WS02004405WS02004406    1.00   0.00  0.00  0.00  1.00  0.00  0.00  0.00  0.02  0.00
  WS02004404WS02004405    1.00   0.00  0.00  0.00  1.00  0.00  0.00  0.00  0.00  0.00
  WS02004403WS02004404    1.00   0.00  0.02  0.00  0.98  0.00  0.00  0.00  0.00  0.00
  WS02004402WS02004403    1.00   0.02  0.00  0.00  0.98  0.00  0.00  0.00  0.00  0.00
  WS02004139WS02001211    1.00   0.00  0.00  0.00  1.00  0.00  0.00  0.00  0.00  0.00
  WS02004138WS02004139    1.00   0.00  0.01  0.00  0.99  0.00  0.00  0.00  1.00  0.00
  WS02003067WS02003066    1.00   0.03  0.00  0.00  0.97  0.00  0.00  0.00  0.00  0.00
  WS02001213WS02003059    1.00   0.00  0.00  0.00  1.00  0.00  0.00  0.00  0.00  0.00
  WS02001212WS02001213    1.00   0.00  0.00  0.00  0.87  0.00  0.12  0.00  0.00  0.00
  WS02001211WS02001212    1.00   0.00  0.00  0.00  1.00  0.00  0.00  0.00  0.00  0.00
  WS02003072WS02003073    1.00   0.00  0.00  0.00  0.00  0.00  0.00  1.00  0.00  0.00
  WS02003069WS02003072    1.00   0.00  0.00  0.00  1.00  0.00  0.00  0.00  0.19  0.00
  WS02003060WS02003069    1.00   0.00  0.00  0.00  1.00  0.00  0.00  0.00  0.11  0.00
  WS02003059WS02003060    1.00   0.00  0.00  0.00  1.00  0.00  0.00  0.00  0.00  0.00
  HS02004901HS02004770    1.00   0.04  0.00  0.00  0.96  0.00  0.00  0.00  0.01  0.00
  HS02004876HS02004881    1.00   0.01  0.00  0.00  0.99  0.01  0.00  0.00  0.00  0.00
  HS02004870HS02004876    1.00   0.00  0.00  0.00  1.00  0.00  0.00  0.00  0.95  0.00
  HS02004842HS02004848    1.00   0.00  0.04  0.00  0.96  0.00  0.00  0.00  0.64  0.00
  HS02004837HS02004842    1.00   0.00  0.00  0.00  1.00  0.00  0.00  0.00  0.11  0.00
  HS02004830HS02004837    1.00   0.00  0.00  0.00  1.00  0.00  0.00  0.00  0.99  0.00
  HS02004824HS02004830    1.00   0.00  0.00  0.00  1.00  0.00  0.00  0.00  0.00  0.00
  HS02004817HS02004824    1.00   0.00  0.00  0.00  1.00  0.00  0.00  0.00  1.00  0.00
  HS02004770HS02004777    1.00   0.00  0.04  0.00  0.96  0.00  0.00  0.00  0.05  0.00
  HS02004799HS02004480    1.00   0.00  0.01  0.00  0.94  0.00  0.05  0.00  0.00  0.00
  HS02004792HS02004799    1.00   0.00  0.00  0.00  1.00  0.00  0.00  0.00  0.98  0.00
  HS02004788HS02004792    1.00   0.00  0.00  0.00  1.00  0.00  0.00  0.00  0.98  0.00
  HS02004785HS02004788    1.00   0.00  0.00  0.00  1.00  0.00  0.00  0.00  0.00  0.00
  HS02004777HS02004785    1.00   0.00  0.00  0.00  1.00  0.00  0.00  0.00  0.17  0.00
  HS02004480HS02004478    1.00   0.05  0.00  0.00  0.78  0.00  0.00  0.17  0.00  0.00
  HS02004479HS02004480    1.00   0.01  0.00  0.00  0.99  0.00  0.00  0.00  0.14  0.00
  HS02004862HS02004870    1.00   0.00  0.00  0.00  1.00  0.00  0.00  0.00  0.05  0.00
  HS02004848HS02004852    1.00   0.04  0.00  0.00  0.96  0.00  0.00  0.00  0.72  0.00
  HS02004856HS02004862    1.00   0.00  0.07  0.00  0.93  0.00  0.00  0.00  0.78  0.00
  HS02004852HS02004856    1.00   0.04  0.01  0.00  0.95  0.00  0.00  0.00  0.84  0.00
  HS02004802HS02004478    1.00   0.04  0.01  0.00  0.95  0.00  0.00  0.00  0.01  0.00
  HS02004478WS02006287    1.00   0.05  0.00  0.00  0.86  0.08  0.00  0.00  0.73  0.00
  HS02004817HS02004807    1.00   0.00  0.04  0.00  0.96  0.00  0.00  0.00  0.00  0.00
  HS02004807HS02004802    1.00   0.04  0.00  0.00  0.95  0.00  0.00  0.00  0.01  0.00
  YS02001759YS02001757    1.00   0.00  0.00  0.00  1.00  0.00  0.00  0.00  0.18  0.00
  YS02001762YS02001759    1.00   0.00  0.00  0.00  1.00  0.00  0.00  0.00  0.04  0.00
  YS02001765YS02001762    1.00   0.00  0.00  0.00  1.00  0.00  0.00  0.00  0.19  0.00
  YS02001770YS02001767    1.00   0.00  0.00  0.00  1.00  0.00  0.00  0.00  0.00  0.00
  YS02001774YS02001770    1.00   0.00  0.05  0.00  0.95  0.00  0.00  0.00  0.05  0.00
  YS02001779YS02001774    1.00   0.00  0.00  0.00  1.00  0.00  0.00  0.00  0.24  0.00
  YS02001649YS02001757    1.00   0.00  0.00  0.00  1.00  0.00  0.00  0.00  0.18  0.00
  YS02001767YS02001765    1.00   0.00  0.00  0.00  1.00  0.00  0.00  0.00  0.01  0.00
  YS02006561YS02001783    1.00   0.07  0.00  0.00  0.15  0.78  0.00  0.00  0.64  0.00
  YS02001783YS02001784    1.00   0.00  0.07  0.00  0.93  0.00  0.00  0.00  0.01  0.00
  YS02001784YS02001785    1.00   0.00  0.00  0.00  1.00  0.00  0.00  0.00  0.23  0.00
  YS02001788YS02001790    1.00   0.00  0.00  0.00  0.27  0.73  0.00  0.00  0.61  0.00
  YS02001790YS02001791    1.00   0.00  0.00  0.00  0.21  0.79  0.00  0.00  0.56  0.00
  YS02001791YS02001793    1.00   0.00  0.00  0.00  0.24  0.76  0.00  0.00  0.04  0.00
  YS02001910YS02001907    1.00   0.00  0.00  0.00  0.99  0.00  0.00  0.01  0.13  0.00
  YS02001786YS02001788    1.00   0.00  0.00  0.00  0.24  0.76  0.00  0.00  0.00  0.00
  YS02001915YS02001910    1.00   0.00  0.00  0.00  1.00  0.00  0.00  0.00  0.21  0.00
  YS02001918YS02001915    1.00   0.00  0.00  0.00  0.99  0.00  0.00  0.00  0.67  0.00
  YS02001923YS02001920    1.00   0.00  0.00  0.00  1.00  0.00  0.00  0.00  1.00  0.00
  YS02001926YS02001923    1.00   0.00  0.03  0.00  0.00  0.00  0.97  0.00  0.00  0.00
  YS02001929YS02001926    1.00   0.00  0.04  0.00  0.96  0.00  0.00  0.00  0.87  0.00
  YS02001920YS02001918    1.00   0.00  0.00  0.00  1.00  0.00  0.00  0.00  0.00  0.00
  YS02001629YS02163301    1.00   0.06  0.00  0.00  0.94  0.00  0.00  0.00  0.00  0.00
  YS02001619YS02001622    1.00   0.04  0.00  0.00  0.96  0.00  0.00  0.00  0.00  0.00
  YS02001622YS02001625    1.00   0.04  0.00  0.00  0.96  0.00  0.00  0.00  0.10  0.00
  YS02001625YS02001629    1.00   0.04  0.03  0.00  0.91  0.00  0.02  0.00  0.00  0.00
  YS02163301YS02001633    1.00   0.00  0.06  0.00  0.94  0.00  0.00  0.00  0.00  0.00
  YS02163601YS02164001    1.00   0.00  0.03  0.00  0.97  0.00  0.00  0.00  0.00  0.00
  YS02164001YS02001641    1.00   0.00  0.03  0.00  0.97  0.00  0.00  0.00  0.07  0.00
  YS02001641YS02001644    1.00   0.00  0.00  0.00  1.00  0.00  0.00  0.00  0.00  0.00
  YS02001647YS02001649    1.00   0.00  0.07  0.00  0.93  0.00  0.00  0.00  0.01  0.00
  YS02006553YS02006556    1.00   0.00  0.00  0.00  1.00  0.00  0.00  0.00  0.03  0.00
  YS02006556YS02006558    1.00   0.00  0.00  0.00  1.00  0.00  0.00  0.00  0.00  0.00
  YSB6556YSB1171          1.00   0.01  0.03  0.00  0.96  0.00  0.00  0.00  0.00  0.00
  YS02001907YS02006553    1.00   0.00  0.01  0.00  0.99  0.00  0.00  0.00  0.00  0.00
  YS02006558YS02006561    1.00   0.07  0.00  0.00  0.00  0.93  0.00  0.00  0.61  0.00
  YS02001633YS02163601    1.00   0.00  0.00  0.00  1.00  0.00  0.00  0.00  0.18  0.00
  YS02001644YS02001647    1.00   0.00  0.07  0.00  0.93  0.00  0.00  0.00  0.00  0.00
  YS02001745YS02001748    1.00   0.00  0.00  0.00  0.89  0.00  0.00  0.10  0.04  0.00
  YS02001748YS02001751    1.00   0.00  0.00  0.00  0.97  0.03  0.00  0.00  0.17  0.00
  YS02001751YS02001754    1.00   0.00  0.00  0.00  0.92  0.00  0.00  0.08  0.02  0.00
  YS02001754YS02001757    1.00   0.00  0.00  0.00  1.00  0.00  0.00  0.00  0.23  0.00
  YS02001882YS02001884    1.00   0.06  0.00  0.00  0.94  0.00  0.00  0.00  0.00  0.00
  YS02001884YS02001887    1.00   0.02  0.02  0.00  0.96  0.00  0.00  0.00  0.00  0.00
  YS02001890YS02001895    1.00   0.00  0.06  0.00  0.94  0.00  0.00  0.00  0.00  0.00
  YS02001895YS02001898    1.00   0.06  0.00  0.00  0.92  0.00  0.01  0.00  0.00  0.00
  YS02001898YS02001901    1.00   0.06  0.00  0.00  0.94  0.00  0.00  0.00  0.02  0.00
  YS02001901YS02001904    1.00   0.06  0.00  0.00  0.94  0.00  0.00  0.00  0.00  0.00
  YS02001904YS02001907    1.00   0.00  0.06  0.00  0.94  0.00  0.00  0.00  0.00  0.00
  YS02001887YS02001890    1.00   0.00  0.00  0.00  0.99  0.00  0.01  0.00  0.00  0.00
  YS02001652YS02001649    1.00   0.00  0.00  0.00  1.00  0.00  0.00  0.00  0.22  0.00
  YS02001655YS02001652    1.00   0.00  0.00  0.00  0.92  0.00  0.00  0.08  0.02  0.00
  YS02001658YS02001655    1.00   0.00  0.05  0.00  0.91  0.04  0.00  0.00  0.08  0.00
  YS02001661YS02001658    1.00   0.05  0.00  0.00  0.89  0.05  0.00  0.00  0.04  0.00
  YS02001664YS02001661    1.00   0.04  0.00  0.00  0.91  0.05  0.00  0.00  0.26  0.00
  YSB1154YSB6556          1.00   0.04  0.00  0.00  0.96  0.00  0.00  0.00  0.02  0.00
  YSB1174YSB1171          1.00   0.02  0.01  0.00  0.97  0.00  0.00  0.00  0.00  0.00
  YSB1171HS02004479       1.00   0.01  0.00  0.00  0.98  0.00  0.00  0.01  0.13  0.00
  HS02004881HS02006253    1.00   0.02  0.00  0.00  0.58  0.01  0.00  0.39  0.37  0.00
  YS02001793JiankangQianchi    1.00   0.00  0.00  0.00  0.68  0.32  0.00  0.00  0.54  0.00
  YS02001757CaochengTiaoxuchi    1.00   0.00  0.09  0.00  0.91  0.00  0.00  0.00  0.00  0.00
  WSF200WS02003060        1.00   0.00  0.01  0.00  0.84  0.15  0.00  0.00  0.58  0.00
  1                       1.00   0.00  0.00  0.00  0.00  1.00  0.00  0.00  0.49  0.00
  
  
  *************************
  Conduit Surcharge Summary
  *************************
  
  ----------------------------------------------------------------------------
                                                           Hours        Hours 
                         --------- Hours Full --------   Above Full   Capacity
  Conduit                Both Ends  Upstream  Dnstream   Normal Flow   Limited
  ----------------------------------------------------------------------------
  WS02006229WS02006228        1.81      1.97      1.81      3.64         1.81
  WS02006256WS02006235        5.06      5.06      6.53      3.36         0.01
  WS02006253WS02006251        0.79      0.79      0.83      0.01         0.01
  WS02006252WS02006251        0.92      0.92      1.58      1.40         0.01
  WS02006251WS02006249        0.80      0.80      0.84      0.81         0.50
  WS02006249WS02006248        0.81      0.81      0.84      2.36         0.01
  WS02006248WS02006247        0.85      0.85      0.94      0.01         0.01
  WS02006247WS02006245        0.94      0.98      0.94      2.88         0.93
  WS02006245WS02006243        0.96      0.96      1.03      0.20         0.12
  WS02006243WS02006242        1.06      1.06      1.16      0.01         0.01
  WS02006242WS02006240        1.13      1.13      1.21      1.47         0.01
  WS02006240WS02006239        1.15      1.15      1.17      0.74         0.38
  WS02006239WS02006238        1.30      1.30      1.40      0.77         0.45
  WS02006238WS02006235        1.39      1.39      1.54      0.01         0.01
  WS02006235WS02006234        1.16      1.16      1.36      4.71         0.01
  WS02006234WS02006232        1.25      1.25      1.59      0.65         0.64
  WS02006232WS02006231        0.89      0.89      1.59      0.71         0.01
  WS02006231WS02006230        0.59      0.59      0.92      5.20         0.01
  WS02006230WS02006229        2.63      3.21      2.63      5.78         2.63
  WS02006228WS02006109        1.87      2.23      1.87      4.29         1.87
  WS02006112WS02006115        0.01      0.01      0.77      0.01         0.01
  WS02006111WS02006112        0.01      0.01      3.83      0.01         0.01
  WS02006110WS02006113        0.01      0.01      2.10      0.01         0.01
  WS02006109WS02006110        0.67      0.67      2.24      0.68         0.01
  WS02004405WS02004406        0.01      0.01      0.01      0.66         0.01
  WS02004404WS02004405        0.01      0.01      0.01      5.69         0.01
  WS02003072WS02003073        0.01      0.01      0.01      4.96         0.01
  HS02004480HS02004478        0.01      0.01      0.01      0.06         0.01
  YS02001759YS02001757        5.57      5.57      5.62      0.01         0.01
  YS02001762YS02001759        5.56      5.56      5.57      0.01         0.01
  YS02001765YS02001762        5.54      5.54      5.56      0.01         0.01
  YS02001770YS02001767        5.52      5.52      5.52      0.01         0.65
  YS02001774YS02001770        5.51      5.51      5.55      0.01         0.01
  YS02001779YS02001774        5.28      5.28      5.55      0.01         0.01
  YS02001649YS02001757        5.56      5.56      5.62      0.01         0.01
  YS02001767YS02001765        5.52      5.52      5.54      0.01         0.01
  YS02006561YS02001783        0.01      0.01      0.01      0.01         0.01
  YS02001783YS02001784        0.01      0.01      0.07      0.01         0.01
  YS02001784YS02001785        0.01      0.07      0.01      1.07         0.01
  YS02001788YS02001790        0.01      0.01      0.78      0.01         0.01
  YS02001790YS02001791        0.78      0.78      0.88      0.01         0.01
  YS02001791YS02001793        0.88      0.88      1.15      0.01         0.01
  YS02001910YS02001907        0.01      0.01      0.13      0.01         0.01
  YS02001786YS02001788        0.01      0.01      0.01      0.65         0.01
  YS02001629YS02163301        5.51      5.51      5.52      0.01         0.01
  YS02001619YS02001622        4.90      4.91      4.97      0.01         0.01
  YS02001622YS02001625        4.97      4.97      5.48      0.01         0.01
  YS02001625YS02001629        4.92      4.92      5.48      0.01         0.01
  YS02163301YS02001633        5.52      5.52      5.54      0.01         0.01
  YS02163601YS02164001        5.53      5.53      5.56      0.01         0.01
  YS02164001YS02001641        5.53      5.53      5.55      0.01         0.01
  YS02001641YS02001644        5.55      5.55      5.55      0.01         0.83
  YS02001647YS02001649        5.43      5.43      5.56      0.01         0.01
  YS02006553YS02006556        0.01      0.01      0.44      0.01         0.01
  YS02006556YS02006558        0.01      0.01      0.60      0.01         0.01
  YS02001907YS02006553        1.11      1.11      1.29      0.01         0.01
  YS02006558YS02006561        0.01      0.01      0.01      0.93         0.01
  YS02001633YS02163601        5.53      5.53      5.56      0.01         0.01
  YS02001644YS02001647        5.43      5.43      5.55      0.01         0.01
  YS02001745YS02001748        0.01      0.01      4.67      0.01         0.01
  YS02001748YS02001751        4.75      4.75      4.95      0.01         0.01
  YS02001751YS02001754        4.95      4.95      5.35      0.01         0.01
  YS02001754YS02001757        5.42      5.42      5.62      0.01         0.01
  YS02001904YS02001907        0.01      0.01      0.49      0.01         0.01
  YS02001652YS02001649        5.46      5.46      5.56      0.01         0.01
  YS02001655YS02001652        5.00      5.00      5.39      0.01         0.01
  YS02001658YS02001655        4.70      4.70      5.00      0.01         0.01
  YS02001661YS02001658        0.03      0.03      4.70      0.01         0.01
  YS02001664YS02001661        0.01      0.01      0.38      0.01         0.01
  HS02004881HS02006253        0.01      0.01      0.56      0.01         0.01
  YS02001793JiankangQianchi        1.08      1.08      3.48      0.01         0.01
  YS02001757CaochengTiaoxuchi        4.72      4.72      5.62      0.01         0.01
  
  
  ***************
  Pumping Summary
  ***************
  
  ---------------------------------------------------------------------------------------------------------
                                                  Min       Avg       Max     Total     Power    % Time Off
                        Percent   Number of      Flow      Flow      Flow    Volume     Usage    Pump Curve
  Pump                 Utilized   Start-Ups       LPS       LPS       LPS  10^6 ltr     Kw-hr    Low   High
  ---------------------------------------------------------------------------------------------------------
  CC-Pump-1               48.93           5      0.00    148.44    200.00     1.980      2.09    0.0    0.0
  CC-Pump-2               31.91           5      0.00    104.53    200.00     1.080      1.41    0.0    0.0
  JK-Pump-1               46.82           5      0.00    176.39    300.00     2.330     42.40    0.0    0.0
  JK-Pump-2               40.43           4      0.00    287.63    683.00     3.249     58.18    0.0   96.3
  XR-Pump-1               91.49           2      0.00     92.21     95.00     2.337     40.88    0.0    0.0
  XR-Pump-2               89.36           3      0.00     90.05     95.00     2.166     37.35    0.0    0.0
  XR-Pump-3               82.97           5      0.00     90.07     95.00     1.995     33.60    0.0    0.0
  XR-Pump-4               82.97           5      0.00     90.07     95.00     1.995     33.60    0.0    0.0
  
  
  ***************************
  Link Pollutant Load Summary
  ***************************
  
  ------------------------------------------------------------------------------------------
                                 COD            SS            TN            TP         NH4-N
  Link                            kg            kg            kg            kg            kg
  ------------------------------------------------------------------------------------------
  WS02003066WSF200           450.956       794.036        14.655         1.408         8.063
  WS02006287WS02006284       153.618       274.229         7.147         0.787         4.172
  WS02006284WS02006280       154.040       274.910         7.186         0.792         4.196
  WS02006280WS02006229       154.023       274.876         7.186         0.792         4.196
  WS02006229WS02006228       460.144       809.825        14.470         1.366         7.904
  WS02006256WS02006235        81.721       141.263         2.065         0.171         1.077
  WS02006253WS02006251        28.932        53.688         0.731         0.060         0.376
  WS02006252WS02006251       220.931       383.940         5.104         0.392         2.569
  WS02006251WS02006249       242.233       424.440         5.668         0.439         2.863
  WS02006249WS02006248       230.761       404.421         5.400         0.418         2.727
  WS02006248WS02006247       230.819       404.549         5.404         0.419         2.730
  WS02006247WS02006245       230.290       403.647         5.389         0.418         2.722
  WS02006245WS02006243       229.138       401.717         5.355         0.415         2.704
  WS02006243WS02006242       229.608       402.610         5.365         0.415         2.709
  WS02006242WS02006240       229.019       401.676         5.348         0.414         2.700
  WS02006240WS02006239       228.883       401.556         5.340         0.413         2.695
  WS02006239WS02006238       229.930       403.368         5.371         0.416         2.712
  WS02006238WS02006235       230.428       404.129         5.384         0.417         2.719
  WS02006235WS02006234       309.938       541.467         7.389         0.583         3.764
  WS02006234WS02006232       309.440       540.605         7.381         0.583         3.760
  WS02006232WS02006231       308.610       539.187         7.355         0.580         3.746
  WS02006231WS02006230       307.715       537.655         7.335         0.579         3.736
  WS02006230WS02006229       307.761       537.822         7.346         0.580         3.743
  WS02006228WS02006109       459.352       808.505        14.446         1.364         7.892
  WS02006116WS02004401       464.689       817.453        15.074         1.446         8.290
  WS02006115WS02006116       466.053       819.769        15.114         1.449         8.311
  WS02006113WS02006111       464.987       817.299        15.143         1.454         8.334
  WS02006112WS02006115       467.557       822.341        15.170         1.455         8.342
  WS02006111WS02006112       464.364       816.225        15.124         1.452         8.323
  WS02006110WS02006113       465.680       818.477        15.174         1.457         8.351
  WS02006109WS02006110       467.213       821.067        15.246         1.465         8.394
  WS02004411WS02004412       454.552       800.134        14.815         1.425         8.155
  WS02004401WS02004402       463.181       814.876        15.022         1.441         8.261
  WS02004413WS02003067       451.554       795.030        14.679         1.410         8.077
  WS02004412WS02004413       453.205       797.854        14.759         1.419         8.124
  WS02004410WS02004411       455.647       801.982        14.856         1.429         8.179
  WS02004409WS02004410       456.800       803.940        14.901         1.433         8.204
  WS02004407WS02004409       457.690       805.435        14.929         1.436         8.220
  WS02004406WS02004407       457.821       805.632        14.928         1.436         8.218
  WS02004405WS02004406       459.709       808.829        15.008         1.444         8.265
  WS02004404WS02004405       460.870       810.818        15.017         1.444         8.266
  WS02004403WS02004404       460.581       810.444        14.937         1.433         8.214
  WS02004402WS02004403       461.854       812.620        14.982         1.437         8.239
  WS02004139WS02001211      1330.309      2143.249       121.329        15.048        75.479
  WS02004138WS02004139      1335.786      2152.096       121.811        15.108        75.779
  WS02003067WS02003066       451.129       794.328        14.664         1.409         8.068
  WS02001213WS02003059      1359.449      2189.690       124.218        15.411        77.290
  WS02001212WS02001213      1369.536      2205.911       125.146        15.526        77.868
  WS02001211WS02001212      1372.628      2210.883       125.431        15.561        78.045
  WS02003072WS02003073      1907.098      3138.095       148.354        18.007        91.288
  WS02003069WS02003072      1911.964      3145.983       148.778        18.059        91.551
  WS02003060WS02003069      1915.066      3151.038       149.021        18.089        91.700
  WS02003059WS02003060      1355.205      2182.904       123.800        15.358        77.029
  HS02004901HS02004770         4.719         8.809         0.090         0.007         0.042
  HS02004876HS02004881        17.993        34.092         0.459         0.037         0.235
  HS02004870HS02004876        13.687        25.804         0.386         0.032         0.201
  HS02004842HS02004848         2.503         4.541         0.054         0.004         0.025
  HS02004837HS02004842         7.115        11.874         0.522         0.063         0.318
  HS02004830HS02004837        53.600        88.955         4.327         0.530         2.674
  HS02004824HS02004830        54.350        90.157         4.399         0.539         2.719
  HS02004817HS02004824        64.386       109.161         4.631         0.555         2.836
  HS02004770HS02004777        18.053        34.000         0.381         0.025         0.174
  HS02004799HS02004480        67.973       122.829         2.437         0.246         1.351
  HS02004792HS02004799        62.306       111.544         2.380         0.246         1.333
  HS02004788HS02004792        38.437        68.537         1.779         0.193         1.026
  HS02004785HS02004788        19.552        36.411         0.533         0.045         0.270
  HS02004777HS02004785        19.000        35.516         0.484         0.038         0.239
  HS02004480HS02004478        84.125       153.998         2.669         0.260         1.453
  HS02004479HS02004480        20.382        37.903         0.633         0.064         0.353
  HS02004862HS02004870        10.184        18.809         0.316         0.028         0.168
  HS02004848HS02004852         3.379         6.212         0.072         0.005         0.033
  HS02004856HS02004862         6.281        11.949         0.128         0.008         0.060
  HS02004852HS02004856         3.375         6.204         0.072         0.005         0.033
  HS02004802HS02004478        69.812       120.760         4.506         0.530         2.735
  HS02004478WS02006287       153.802       274.537         7.162         0.789         4.181
  HS02004817HS02004807        63.025       106.984         4.502         0.539         2.755
  HS02004807HS02004802        70.435       121.750         4.566         0.538         2.773
  YS02001759YS02001757       193.181       336.234         4.139         0.288         2.045
  YS02001762YS02001759       100.603       176.412         2.348         0.168         1.182
  YS02001765YS02001762        99.944       175.179         2.358         0.170         1.190
  YS02001770YS02001767        97.508       171.227         2.057         0.131         0.998
  YS02001774YS02001770         5.882        10.174         0.142         0.010         0.072
  YS02001779YS02001774         4.873         8.217         0.230         0.025         0.134
  YS02001649YS02001757       226.309       383.409         4.859         0.354         2.358
  YS02001767YS02001765        99.888       175.027         2.369         0.172         1.197
  YS02006561YS02001783       395.354       682.879         9.723         0.790         5.030
  YS02001783YS02001784       395.284       682.779         9.720         0.790         5.028
  YS02001784YS02001785       402.666       694.609        10.434         0.879         5.475
  YS02001788YS02001790       403.312       695.661        10.508         0.888         5.521
  YS02001790YS02001791       404.373       697.373        10.609         0.901         5.584
  YS02001791YS02001793       404.271       697.210        10.603         0.900         5.581
  YS02001910YS02001907       132.939       225.183         4.411         0.399         2.417
  YS02001786YS02001788       402.894       694.983        10.463         0.883         5.493
  YS02001915YS02001910       132.854       225.008         4.363         0.392         2.385
  YS02001918YS02001915        66.001       106.894         2.900         0.310         1.685
  YS02001923YS02001920        46.034        74.975         0.954         0.067         0.468
  YS02001926YS02001923        45.680        74.408         0.915         0.062         0.443
  YS02001929YS02001926        45.427        73.992         0.884         0.058         0.424
  YS02001920YS02001918        65.955       106.852         2.872         0.307         1.667
  YS02001629YS02163301        51.833        87.551         1.128         0.071         0.523
  YS02001619YS02001622        54.657        91.911         1.195         0.075         0.553
  YS02001622YS02001625        53.625        90.333         1.170         0.073         0.541
  YS02001625YS02001629        52.548        88.740         1.143         0.072         0.529
  YS02163301YS02001633        52.571        88.845         1.141         0.073         0.530
  YS02163601YS02164001       144.245       242.056         3.030         0.213         1.456
  YS02164001YS02001641       143.890       241.480         3.011         0.211         1.444
  YS02001641YS02001644       144.777       242.952         3.020         0.211         1.447
  YS02001647YS02001649       185.172       311.556         3.813         0.269         1.835
  YS02006553YS02006556       285.779       491.887         7.364         0.622         3.873
  YS02006556YS02006558       285.656       491.657         7.331         0.618         3.851
  YSB6556YSB1171              11.023        20.672         0.273         0.025         0.146
  YS02001907YS02006553       285.772       491.897         7.362         0.622         3.871
  YS02006558YS02006561       395.327       682.823         9.721         0.790         5.028
  YS02001633YS02163601       144.904       243.049         3.013         0.210         1.441
  YS02001644YS02001647       190.543       320.219         3.899         0.274         1.873
  YS02001745YS02001748        83.131       142.632         2.309         0.183         1.210
  YS02001748YS02001751        84.600       144.723         2.618         0.225         1.410
  YS02001751YS02001754        83.855       143.288         2.709         0.239         1.474
  YS02001754YS02001757        84.705       144.611         2.877         0.262         1.582
  YS02001882YS02001884         1.358         2.260         0.032         0.003         0.017
  YS02001884YS02001887         3.987         6.818         0.089         0.007         0.046
  YS02001890YS02001895       154.012       268.424         2.977         0.225         1.468
  YS02001895YS02001898       153.867       268.217         2.970         0.225         1.464
  YS02001898YS02001901       153.732       268.021         2.967         0.225         1.463
  YS02001901YS02001904       153.744       268.072         2.985         0.227         1.474
  YS02001904YS02001907       154.391       269.150         3.069         0.238         1.528
  YS02001887YS02001890       154.870       269.749         3.039         0.233         1.506
  YS02001652YS02001649        53.049        91.228         1.298         0.103         0.638
  YS02001655YS02001652        53.710        92.303         1.316         0.105         0.647
  YS02001658YS02001655        52.051        89.703         1.083         0.074         0.497
  YS02001661YS02001658        59.295       102.344         1.232         0.084         0.565
  YS02001664YS02001661        70.057       119.371         1.478         0.101         0.677
  YSB1154YSB6556              10.535        19.893         0.213         0.018         0.108
  YSB1174YSB1171               7.511        14.256         0.185         0.017         0.098
  YSB1171HS02004479           20.297        37.777         0.625         0.063         0.348
  HS02004881HS02006253        20.311        38.652         0.497         0.039         0.252
  YS02001793JiankangQianchi       404.710       697.944        10.607         0.900         5.582
  YS02001757CaochengTiaoxuchi       457.991       789.721        10.608         0.805         5.328
  WSF200WS02003060           450.838       793.854        14.656         1.408         8.064
  1                         1910.625      3143.675       148.783        18.062        91.559
  CC-Pump-1                  142.443       247.466         3.288         0.252         1.654
  CC-Pump-2                   78.435       136.386         1.813         0.139         0.913
  JK-Pump-1                   80.866       139.731         2.020         0.166         1.050
  JK-Pump-2                  156.603       272.764         3.837         0.314         1.988
  XR-Pump-1                  381.818       614.632        35.032         4.349        21.805
  XR-Pump-2                  346.737       558.496        31.679         3.930        19.711
  XR-Pump-3                  305.887       493.138        27.758         3.440        17.261
  XR-Pump-4                  305.887       493.138        27.758         3.440        17.261
  

  Analysis begun on:  Sun Jul 11 09:18:20 2021
  Analysis ended on:  Sun Jul 11 09:18:22 2021
  Total elapsed time: 00:00:02