
  EPA STORM WATER MANAGEMENT MODEL - VERSION 5.1 (Build 5.3.0.dev0)
  --------------------------------------------------------------

  WARNING 04: minimum elevation drop used for Conduit WS02004404WS02004405
  WARNING 03: negative offset ignored for Link YS02001904YS02001907
  
  *********************************************************
  NOTE: The summary statistics displayed in this report are
  based on results found at every computational time step,  
  not just on results from each reporting time step.
  *********************************************************
  
  ****************
  Analysis Options
  ****************
  Flow Units ............... LPS
  Process Models:
    Rainfall/Runoff ........ YES
    RDII ................... NO
    Snowmelt ............... NO
    Groundwater ............ NO
    Flow Routing ........... YES
    Ponding Allowed ........ NO
    Water Quality .......... YES
  Infiltration Method ...... HORTON
  Flow Routing Method ...... DYNWAVE
  Surcharge Method ......... EXTRAN
  Starting Date ............ 08/28/2015 08:00:00
  Ending Date .............. 08/28/2015 15:50:00
  Antecedent Dry Days ...... 8.0
  Report Time Step ......... 00:01:00
  Wet Time Step ............ 00:01:00
  Dry Time Step ............ 00:01:00
  Routing Time Step ........ 5.00 sec
  Variable Time Step ....... YES
  Maximum Trials ........... 8
  Number of Threads ........ 4
  Head Tolerance ........... 0.001500 m
  
  
  **************************        Volume         Depth
  Runoff Quantity Continuity     hectare-m            mm
  **************************     ---------       -------
  Total Precipitation ......         2.285         5.003
  Evaporation Loss .........         0.000         0.000
  Infiltration Loss ........         0.509         1.115
  Surface Runoff ...........         1.288         2.820
  Final Storage ............         0.488         1.069
  Continuity Error (%) .....        -0.022
  
  
  **************************           COD            SS            TN            TP         NH4-N
  Runoff Quality Continuity             kg            kg            kg            kg            kg
  **************************    ----------    ----------    ----------    ----------    ----------
  Initial Buildup ..........     41378.656     70582.865      1804.177       168.684      1032.807
  Surface Buildup ..........        14.505        17.862         3.079         0.284         1.823
  Wet Deposition ...........         0.000         0.000         0.000         0.000         0.000
  Sweeping Removal .........         0.000         0.000         0.000         0.000         0.000
  Infiltration Loss ........        21.975        37.993         0.442         0.029         0.207
  BMP Removal ..............         0.000         0.000         0.000         0.000         0.000
  Surface Runoff ...........       718.700      1207.589        14.718         0.947         6.928
  Remaining Buildup ........     40652.255     69354.762      1792.091       167.991      1027.493
  Continuity Error (%) .....         0.001         0.001         0.000         0.000         0.000
  
  
  **************************        Volume        Volume
  Flow Routing Continuity        hectare-m      10^6 ltr
  **************************     ---------     ---------
  Dry Weather Inflow .......         0.616         6.165
  Wet Weather Inflow .......         1.288        12.876
  Groundwater Inflow .......         0.000         0.000
  RDII Inflow ..............         0.000         0.000
  External Inflow ..........         0.102         1.024
  External Outflow .........         1.248        12.477
  Flooding Loss ............         0.306         3.058
  Evaporation Loss .........         0.000         0.000
  Exfiltration Loss ........         0.000         0.000
  Initial Stored Volume ....         0.076         0.761
  Final Stored Volume ......         0.613         6.129
  Continuity Error (%) .....        -4.032
  
  
  **************************           COD            SS            TN            TP         NH4-N
  Quality Routing Continuity            kg            kg            kg            kg            kg
  **************************    ----------    ----------    ----------    ----------    ----------
  Dry Weather Inflow .......      1541.201      2465.922       147.955        18.494        92.472
  Wet Weather Inflow .......       718.478      1207.251        14.713         0.947         6.926
  Groundwater Inflow .......         0.000         0.000         0.000         0.000         0.000
  RDII Inflow ..............         0.000         0.000         0.000         0.000         0.000
  External Inflow ..........       183.418       293.469        17.608         2.201        11.005
  External Outflow .........      1653.396      2679.528       140.452        17.261        86.994
  Flooding Loss ............       167.695       277.597         4.534         0.383         2.379
  Exfiltration Loss ........         0.000         0.000         0.000         0.000         0.000
  Mass Reacted .............         0.000         0.000         0.000         0.000         0.000
  Initial Stored Mass ......         0.000         0.000         0.000         0.000         0.000
  Final Stored Mass ........       496.655       806.961        27.262         3.062        16.176
  Continuity Error (%) .....         5.131         5.107         4.454         4.326         4.397
  
  
  *************************
  Highest Continuity Errors
  *************************
  Node YS02001774 (40.82%)
  Node HS02004842 (26.98%)
  Node YS02001884 (20.65%)
  Node JK-storage (-19.12%)
  Node YSB1171 (6.46%)
  
  
  ***************************
  Time-Step Critical Elements
  ***************************
  Link WS02006252WS02006251 (54.70%)
  Link WS02006280WS02006229 (14.88%)
  Link YS02001793JiankangQianchi (9.15%)
  Link WS02006238WS02006235 (8.48%)
  Link YS02001791YS02001793 (2.54%)
  
  
  ********************************
  Highest Flow Instability Indexes
  ********************************
  Link WS02006113WS02006111 (58)
  Link YS02001779YS02001774 (10)
  Link YS02164001YS02001641 (10)
  Link YS02001774YS02001770 (10)
  Link YS02001765YS02001762 (9)
  
  
  *************************
  Routing Time Step Summary
  *************************
  Minimum Time Step           :     0.30 sec
  Average Time Step           :     1.78 sec
  Maximum Time Step           :     5.00 sec
  Percent in Steady State     :    -0.00
  Average Iterations per Step :     2.64
  Percent Not Converging      :     3.71
  
  
  ***************************
  Subcatchment Runoff Summary
  ***************************
  
  ------------------------------------------------------------------------------------------------------------------------------
                            Total      Total      Total      Total     Imperv       Perv      Total       Total     Peak  Runoff
                           Precip      Runon       Evap      Infil     Runoff     Runoff     Runoff      Runoff   Runoff   Coeff
  Subcatchment                 mm         mm         mm         mm         mm         mm         mm    10^6 ltr      LPS
  ------------------------------------------------------------------------------------------------------------------------------
  sub0                       5.00       0.00       0.00       0.35       4.61       0.00       4.61        0.00     1.63   0.921
  sub1                       5.00       0.00       0.00       0.55       4.37       0.00       4.37        0.03     8.95   0.873
  sub2                       5.00       0.00       0.00       1.85       3.07       0.00       3.07        0.03     7.93   0.614
  sub3                       5.00       0.00       0.00       1.85       3.04       0.00       3.04        0.07    16.25   0.608
  sub4                       5.00       0.00       0.00       0.55       4.23       0.00       4.23        0.09    18.09   0.845
  sub5                       5.00       0.00       0.00       0.35       4.56       0.00       4.56        0.05    15.93   0.912
  sub7                       5.00       0.00       0.00       0.45       4.49       0.00       4.49        0.02     5.55   0.898
  sub8                       5.00       0.00       0.00       0.45       4.48       0.00       4.48        0.03     9.86   0.896
  sub9                       5.00       0.00       0.00       0.45       4.48       0.00       4.48        0.02     7.32   0.896
  sub10                      5.00       0.00       0.00       0.40       4.52       0.00       4.52        0.05    15.89   0.903
  sub11                      5.00       0.00       0.00       0.40       4.54       0.00       4.54        0.05    18.52   0.907
  sub12                      5.00       0.00       0.00       0.65       4.31       0.00       4.31        0.04    15.33   0.861
  sub14                      5.00       0.00       0.00       0.45       4.48       0.00       4.48        0.04    14.31   0.895
  sub15                      5.00       0.00       0.00       1.50       3.44       0.00       3.44        0.06    19.44   0.688
  sub16                      5.00       0.00       0.00       1.65       3.31       0.00       3.31        0.03    13.57   0.662
  sub17                      5.00       0.00       0.00       1.60       3.36       0.00       3.36        0.03    11.02   0.672
  sub22                      5.00       0.00       0.00       2.15       2.81       0.00       2.81        0.18    63.24   0.562
  sub23                      5.00       0.00       0.00       1.85       3.11       0.00       3.11        0.15    53.76   0.621
  sub60                      5.00       0.00       0.00       0.60       3.09       0.00       3.09        0.94    85.37   0.618
  sub61                      5.00       0.00       0.00       0.85       3.29       0.00       3.29        1.01   109.19   0.657
  sub62                      5.00       0.00       0.00       0.40       3.53       0.00       3.53        1.09   110.95   0.706
  sub63                      5.00       0.00       0.00       1.45       2.92       0.00       2.92        0.88   102.74   0.584
  sub64                      5.00       0.00       0.00       0.75       2.96       0.00       2.96        0.90    80.98   0.591
  sub65                      5.00       0.00       0.00       0.65       2.99       0.00       2.99        0.92    82.07   0.599
  sub66                      5.00       0.00       0.00       1.45       2.58       0.00       2.58        0.79    74.65   0.515
  sub67                      5.00       0.00       0.00       0.40       3.87       0.00       3.87        1.19   145.10   0.773
  sub68                      5.00       0.00       0.00       0.70       3.49       0.00       3.49        1.07   121.35   0.698
  sub69                      5.00       0.00       0.00       0.75       3.75       0.00       3.75        0.88   123.14   0.750
  sub70                      5.00       3.83       0.00       3.00       4.66       0.00       4.66        1.07    95.86   0.528
  sub71                      5.00       0.00       0.00       0.40       3.38       0.00       3.38        0.80    76.90   0.677
  sub72                      5.00       0.00       0.00       0.35       2.42       0.00       2.42        0.49    36.09   0.483
  1                          5.00       4.54       0.00       1.31       4.79       0.68       5.47        1.29    91.26   0.573
  2                          5.00       0.00       0.00       2.88       1.13       0.22       1.35        0.54    75.56   0.270
  
  
  ****************************
  Subcatchment Washoff Summary
  ****************************
  
  ------------------------------------------------------------------------------------------
                                 COD            SS            TN            TP         NH4-N
  Subcatchment                    kg            kg            kg            kg            kg
  ------------------------------------------------------------------------------------------
  sub0                         0.738         1.376         0.012         0.001         0.006
  sub1                         2.927         5.483         0.055         0.004         0.026
  sub2                         1.661         2.987         0.037         0.002         0.017
  sub3                         3.973         7.033         0.088         0.006         0.040
  sub4                         6.284        11.615         0.130         0.007         0.062
  sub5                         6.730        12.454         0.118         0.009         0.057
  sub7                         1.574         3.021         0.030         0.002         0.014
  sub8                         2.369         4.627         0.048         0.003         0.023
  sub9                         2.001         3.856         0.039         0.002         0.019
  sub10                        5.611        10.531         0.102         0.007         0.049
  sub11                        5.623        10.727         0.105         0.007         0.050
  sub12                        4.746         8.932         0.085         0.006         0.040
  sub14                        4.239         8.090         0.081         0.005         0.039
  sub15                        4.934         8.960         0.097         0.007         0.045
  sub16                        3.179         5.798         0.061         0.004         0.028
  sub17                        2.903         5.244         0.054         0.004         0.025
  sub22                       14.589        25.956         0.284         0.021         0.131
  sub23                        9.029        16.687         0.202         0.013         0.091
  sub60                       45.967        76.448         0.992         0.056         0.473
  sub61                       58.678        97.429         1.150         0.074         0.551
  sub62                       61.946       104.733         1.294         0.076         0.618
  sub63                       44.230        72.618         0.968         0.065         0.440
  sub64                       54.218        86.737         1.050         0.073         0.496
  sub65                       55.590        89.320         1.087         0.074         0.515
  sub66                       33.065        53.561         0.752         0.046         0.346
  sub67                       93.489       157.213         1.710         0.120         0.822
  sub68                       66.328       111.577         1.346         0.085         0.638
  sub69                       62.891       107.772         1.230         0.082         0.583
  sub70                       93.909       160.358         2.002         0.132         0.921
  sub71                       40.997        69.829         0.919         0.049         0.437
  sub72                       26.006        40.757         0.519         0.033         0.248
  1                           47.557        81.859         1.052         0.070         0.476
  2                            7.517        12.132         0.250         0.015         0.104
  ------------------------------------------------------------------------------------------
  System                     875.499      1475.718        17.950         1.161         8.432
  
  
  ******************
  Node Depth Summary
  ******************
  
  ---------------------------------------------------------------------------------
                                 Average  Maximum  Maximum  Time of Max    Reported
                                   Depth    Depth      HGL   Occurrence   Max Depth
  Node                 Type       Meters   Meters   Meters  days hr:min      Meters
  ---------------------------------------------------------------------------------
  WS02001211           JUNCTION     0.66     0.78     5.62     0  05:07        0.78
  WS02001212           JUNCTION     0.38     0.49     5.55     0  05:07        0.49
  WS02001213           JUNCTION     0.60     0.73     5.49     0  05:06        0.73
  WS02003069           JUNCTION     0.39     0.54     5.12     0  05:05        0.54
  WS02003072           JUNCTION     0.45     0.60     4.97     0  05:05        0.60
  WS02003073           JUNCTION     0.27     0.37     4.43     0  05:06        0.37
  WS02003060           JUNCTION     0.34     0.48     5.41     0  05:04        0.48
  WS02003066           JUNCTION     0.18     0.27     5.83     0  05:03        0.27
  WS02003059           JUNCTION     0.66     0.78     5.47     0  05:05        0.78
  WS02003067           JUNCTION     0.47     0.66     5.98     0  05:02        0.66
  WS02004401           JUNCTION     0.54     0.79     6.79     0  04:59        0.79
  WS02004402           JUNCTION     0.58     0.82     6.78     0  04:59        0.82
  WS02004403           JUNCTION     0.60     0.83     6.76     0  04:59        0.83
  WS02004404           JUNCTION     0.68     0.91     6.76     0  05:00        0.91
  WS02004406           JUNCTION     0.69     0.91     6.74     0  05:00        0.91
  WS02004409           JUNCTION     0.35     0.59     6.36     0  05:01        0.59
  WS02004410           JUNCTION     0.38     0.61     6.33     0  05:02        0.61
  WS02004411           JUNCTION     0.40     0.62     6.30     0  05:02        0.62
  WS02004412           JUNCTION     0.42     0.63     6.27     0  05:02        0.63
  WS02004413           JUNCTION     0.58     0.80     6.27     0  05:02        0.80
  WS02004405           JUNCTION     0.68     0.90     6.75     0  05:00        0.90
  WS02006109           JUNCTION     0.61     0.92     7.54     0  04:54        0.92
  WS02006110           JUNCTION     0.62     0.89     7.48     0  04:54        0.89
  WS02006111           JUNCTION     0.17     0.28     6.98     0  04:55        0.27
  WS02006112           JUNCTION     0.70     0.97     6.85     0  04:59        0.97
  WS02006113           JUNCTION     0.25     0.43     7.33     0  04:55        0.43
  WS02006115           JUNCTION     0.43     0.68     6.82     0  04:59        0.68
  WS02006116           JUNCTION     0.51     0.76     6.80     0  04:59        0.76
  WS02006230           JUNCTION     0.54     1.01     7.75     0  04:54        1.00
  WS02006231           JUNCTION     0.34     0.73     7.86     0  04:53        0.72
  WS02006232           JUNCTION     0.46     0.98     8.01     0  04:52        0.90
  WS02006234           JUNCTION     0.37     1.06     8.22     0  04:52        0.90
  WS02006235           JUNCTION     0.40     1.13     8.29     0  04:52        0.96
  WS02006238           JUNCTION     0.42     1.17     8.31     0  04:52        0.99
  WS02006240           JUNCTION     0.31     1.21     8.50     0  04:52        0.91
  WS02006242           JUNCTION     0.36     1.24     8.51     0  04:52        0.98
  WS02006243           JUNCTION     0.25     1.26     8.68     0  04:52        0.87
  WS02006245           JUNCTION     0.24     1.10     8.59     0  04:52        0.83
  WS02006247           JUNCTION     0.26     1.10     8.60     0  04:52        0.83
  WS02006248           JUNCTION     0.21     1.00     8.59     0  04:52        0.77
  WS02006249           JUNCTION     0.24     0.97     8.57     0  04:52        0.76
  WS02006239           JUNCTION     0.37     1.14     8.35     0  04:52        0.96
  WS02006251           JUNCTION     0.22     0.73     8.40     0  04:53        0.71
  WS02006252           JUNCTION     0.18     0.59     8.83     0  06:00        0.59
  WS02006253           JUNCTION     0.25     0.76     8.41     0  04:53        0.74
  WS02006256           JUNCTION     1.14     2.35     9.28     0  00:32        2.35
  WS02004138           JUNCTION     0.15     0.20     7.45     0  00:00        0.19
  WS02004139           JUNCTION     0.60     0.73     5.64     0  05:08        0.73
  WS02004407           JUNCTION     0.16     0.27     6.58     0  05:00        0.27
  WS02006228           JUNCTION     0.60     0.95     7.60     0  04:54        0.95
  WS02006229           JUNCTION     0.56     0.94     7.64     0  04:54        0.94
  WS02006280           JUNCTION     0.05     0.16     8.43     0  02:13        0.16
  WS02006284           JUNCTION     0.34     0.50     8.90     0  02:13        0.50
  WS02006287           JUNCTION     0.07     0.23     9.19     0  02:12        0.23
  WSF200               JUNCTION     0.15     0.26     5.49     0  05:03        0.26
  HS02004901           JUNCTION     0.10     0.25    10.07     0  02:10        0.25
  HS02004881           JUNCTION     0.00     0.03     9.06     0  02:12        0.03
  HS02004876           JUNCTION     0.03     0.11     9.14     0  02:10        0.11
  HS02004870           JUNCTION     0.01     0.05     9.33     0  02:13        0.05
  HS02004862           JUNCTION     0.01     0.05     9.44     0  02:13        0.05
  HS02004856           JUNCTION     0.07     0.11     9.53     0  02:13        0.11
  HS02004852           JUNCTION     0.01     0.03     9.54     0  02:14        0.03
  HS02004848           JUNCTION     0.01     0.03     9.63     0  02:12        0.03
  HS02004842           JUNCTION     0.33     0.36     9.63     0  02:11        0.36
  HS02004837           JUNCTION     0.02     0.05     9.63     0  02:12        0.05
  HS02004830           JUNCTION     0.04     0.07     9.53     0  02:12        0.07
  HS02004824           JUNCTION     0.02     0.04     9.45     0  02:14        0.04
  HS02004817           JUNCTION     0.42     0.54     9.39     0  02:13        0.54
  HS02004807           JUNCTION     0.10     0.22     9.39     0  02:13        0.22
  HS02004802           JUNCTION     0.14     0.25     9.38     0  02:13        0.25
  HS02004799           JUNCTION     0.09     0.28     9.49     0  02:11        0.28
  HS02004792           JUNCTION     0.02     0.11     9.63     0  02:10        0.11
  HS02004788           JUNCTION     0.02     0.08     9.98     0  02:11        0.08
  HS02004785           JUNCTION     0.03     0.15    10.05     0  02:11        0.15
  HS02004777           JUNCTION     0.12     0.27    10.06     0  02:10        0.27
  HS02004770           JUNCTION     0.09     0.24    10.07     0  02:10        0.24
  HS02004480           JUNCTION     0.06     0.22     9.46     0  02:11        0.22
  HS02004479           JUNCTION     0.09     0.26     9.46     0  02:11        0.26
  HS02004478           JUNCTION     0.05     0.14     9.37     0  02:12        0.14
  YS02001745           JUNCTION     0.61     0.85     8.36     0  05:11        0.85
  YS02001748           JUNCTION     0.98     1.29     8.37     0  05:17        1.29
  YS02001751           JUNCTION     1.15     1.49     8.37     0  04:41        1.48
  YS02001754           JUNCTION     1.39     1.76     8.37     0  05:19        1.76
  YS02001762           JUNCTION     1.58     1.97     8.37     0  04:41        1.96
  YS02001765           JUNCTION     1.54     1.92     8.37     0  04:41        1.92
  YS02001767           JUNCTION     1.50     1.88     8.37     0  04:41        1.88
  YS02001770           JUNCTION     1.50     1.87     8.37     0  04:52        1.87
  YS02001774           JUNCTION     1.56     1.96     8.38     0  04:52        1.94
  YS02001779           JUNCTION     1.32     1.68     8.37     0  04:40        1.68
  YS02001882           JUNCTION     0.26     0.49     7.21     0  02:38        0.49
  YS02001884           JUNCTION     0.35     0.59     7.21     0  02:38        0.59
  YS02001759           JUNCTION     1.62     2.01     8.37     0  04:42        2.00
  YS02001887           JUNCTION     0.43     0.67     7.21     0  02:38        0.67
  YS02001890           JUNCTION     0.46     0.70     7.21     0  02:38        0.70
  YS02001898           JUNCTION     0.23     0.46     7.19     0  02:42        0.46
  YS02001901           JUNCTION     0.35     0.58     7.19     0  02:39        0.58
  YS02001904           JUNCTION     0.33     0.56     7.19     0  02:40        0.56
  YS02001907           JUNCTION     0.66     0.90     7.19     0  02:41        0.90
  YS02001910           JUNCTION     0.45     0.68     7.19     0  02:41        0.68
  YS02001915           JUNCTION     0.25     0.47     7.19     0  02:42        0.47
  YS02001918           JUNCTION     0.08     0.12     7.19     0  02:37        0.12
  YS02001619           JUNCTION     1.11     1.46     8.39     0  06:01        1.44
  YS02001629           JUNCTION     1.45     1.83     8.38     0  06:01        1.81
  YS02001641           JUNCTION     1.55     1.93     8.36     0  06:01        1.92
  YS02001644           JUNCTION     1.56     1.92     8.35     0  04:34        1.92
  YS02001652           JUNCTION     1.41     1.77     8.37     0  04:42        1.77
  YS02001655           JUNCTION     1.18     1.52     8.37     0  04:42        1.51
  YS02001920           JUNCTION     0.17     0.21     7.22     0  02:43        0.21
  YS02001923           JUNCTION     0.06     0.09     7.35     0  03:01        0.09
  YS02001926           JUNCTION     0.14     0.18     7.63     0  03:01        0.18
  YS02001929           JUNCTION     0.06     0.09     7.78     0  03:01        0.09
  YS02001658           JUNCTION     0.93     1.22     8.36     0  05:18        1.22
  YS02001661           JUNCTION     0.71     0.96     8.36     0  05:11        0.96
  YS02001664           JUNCTION     0.31     0.44     8.36     0  05:10        0.44
  YS02001622           JUNCTION     1.13     1.48     8.39     0  06:01        1.46
  YS02001633           JUNCTION     1.54     1.92     8.38     0  06:01        1.91
  YS02001649           JUNCTION     1.59     1.97     8.36     0  04:41        1.97
  YS02001757           JUNCTION     1.72     2.11     8.37     0  04:42        2.10
  YS02001895           JUNCTION     0.23     0.45     7.20     0  02:37        0.45
  YS02001625           JUNCTION     1.41     1.78     8.38     0  06:01        1.76
  YS02163301           JUNCTION     1.48     1.86     8.38     0  06:01        1.84
  YS02163601           JUNCTION     1.59     1.97     8.37     0  06:01        1.96
  YS02164001           JUNCTION     1.53     1.91     8.37     0  06:01        1.90
  YS02001647           JUNCTION     1.39     1.75     8.36     0  04:42        1.75
  YSB1154              JUNCTION     0.23     0.40     9.46     0  02:11        0.40
  YSB6556              JUNCTION     0.12     0.29     9.46     0  02:12        0.29
  YSB1174              JUNCTION     0.18     0.35     9.46     0  02:11        0.35
  YSB1171              JUNCTION     0.38     0.56     9.46     0  02:11        0.56
  YS02006553           JUNCTION     0.66     0.90     7.19     0  02:40        0.90
  YS02006561           JUNCTION     0.13     0.25     6.91     0  02:37        0.24
  YS02006556           JUNCTION     0.63     0.87     7.18     0  02:41        0.87
  YS02006558           JUNCTION     0.68     0.92     7.18     0  02:41        0.92
  YS02001783           JUNCTION     0.23     0.68     6.82     0  02:31        0.64
  YS02001784           JUNCTION     0.26     0.74     6.81     0  02:31        0.73
  YS02001786           JUNCTION     0.23     0.74     6.77     0  02:31        0.74
  YS02001788           JUNCTION     0.18     0.78     6.75     0  02:31        0.72
  YS02001790           JUNCTION     0.24     1.36     7.01     0  02:29        1.03
  YS02001791           JUNCTION     0.21     1.28     6.75     0  02:29        1.16
  YS02001793           JUNCTION     0.30     1.79     6.62     0  03:18        1.78
  WSC                  OUTFALL      0.27     0.37     1.04     0  05:06        0.37
  JK-storage           STORAGE      2.02     5.80     6.60     0  02:30        5.80
  CC-storage           STORAGE      1.02     1.37     8.37     0  05:10        1.37
  XR-storage           STORAGE      2.34     6.41     4.41     0  07:36        6.41
  
  
  *******************
  Node Inflow Summary
  *******************
  
  -------------------------------------------------------------------------------------------------
                                  Maximum  Maximum                  Lateral       Total        Flow
                                  Lateral    Total  Time of Max      Inflow      Inflow     Balance
                                   Inflow   Inflow   Occurrence      Volume      Volume       Error
  Node                 Type           LPS      LPS  days hr:min    10^6 ltr    10^6 ltr     Percent
  -------------------------------------------------------------------------------------------------
  WS02001211           JUNCTION      7.35   388.81     0  03:12       0.207        7.69       0.512
  WS02001212           JUNCTION      0.00   390.16     0  03:11           0        7.65       0.374
  WS02001213           JUNCTION      0.00   391.54     0  03:11           0        7.62       0.292
  WS02003069           JUNCTION      0.32   818.95     0  05:04     0.00902        12.5       0.213
  WS02003072           JUNCTION      0.00   818.88     0  05:05           0        12.5       0.273
  WS02003073           JUNCTION      1.82   820.99     0  05:05      0.0514        12.5       0.306
  WS02003060           JUNCTION     16.53   818.30     0  05:04       0.466        12.5       0.206
  WS02003066           JUNCTION      0.00   431.57     0  05:03           0        4.52       0.058
  WS02003059           JUNCTION      0.00   393.86     0  03:10           0         7.6       0.498
  WS02003067           JUNCTION      0.00   431.35     0  05:03           0        4.52       0.136
  WS02004401           JUNCTION      0.00   463.16     0  04:57           0        4.67       0.281
  WS02004402           JUNCTION      0.00   458.70     0  04:58           0        4.66       0.279
  WS02004403           JUNCTION      0.00   456.72     0  04:59           0        4.64       0.266
  WS02004404           JUNCTION      0.16   456.33     0  04:59     0.00457        4.64       0.214
  WS02004406           JUNCTION      0.00   455.76     0  05:00           0        4.61       0.530
  WS02004409           JUNCTION      0.00   455.41     0  05:00           0        4.58       0.158
  WS02004410           JUNCTION      0.00   447.57     0  05:00           0        4.58       0.204
  WS02004411           JUNCTION      0.00   440.69     0  05:01           0        4.57       0.229
  WS02004412           JUNCTION      0.00   435.81     0  05:02           0        4.56       0.273
  WS02004413           JUNCTION      0.00   432.53     0  05:02           0        4.54       0.441
  WS02004405           JUNCTION      0.04   456.10     0  04:59     0.00107        4.63       0.324
  WS02006109           JUNCTION      1.23   496.13     0  04:54      0.0347         4.7       0.125
  WS02006110           JUNCTION      0.00   496.08     0  04:54           0        4.69       0.228
  WS02006111           JUNCTION      0.00   512.07     0  04:55           0        4.68       0.025
  WS02006112           JUNCTION     11.02   498.78     0  04:55      0.0288        4.71       0.442
  WS02006113           JUNCTION      0.00   496.39     0  04:55           0        4.68       0.063
  WS02006115           JUNCTION      0.00   484.14     0  04:56           0        4.69       0.206
  WS02006116           JUNCTION      0.00   470.54     0  04:57           0        4.68       0.191
  WS02006230           JUNCTION     10.28   489.44     0  04:53        0.29        3.72       0.139
  WS02006231           JUNCTION      0.00   480.95     0  04:52           0        3.43      -0.052
  WS02006232           JUNCTION      0.00   480.54     0  04:52           0        3.43       0.221
  WS02006234           JUNCTION      0.00   479.04     0  04:52           0        3.42      -0.113
  WS02006235           JUNCTION      0.00   478.85     0  04:52           0        3.56       0.194
  WS02006238           JUNCTION      0.00   321.69     0  06:02           0        1.47      -0.094
  WS02006240           JUNCTION      0.00   337.32     0  06:02           0        1.34       0.077
  WS02006242           JUNCTION      0.00   347.04     0  06:01           0        1.29       0.098
  WS02006243           JUNCTION      0.00   356.27     0  06:01           0        1.25      -0.640
  WS02006245           JUNCTION      0.00   361.23     0  06:01           0        1.25       0.786
  WS02006247           JUNCTION      0.00   365.89     0  06:01           0        1.25       0.090
  WS02006248           JUNCTION      0.00   370.38     0  06:00           0        1.24      -0.277
  WS02006249           JUNCTION      0.00   376.34     0  06:00           0        1.25       0.476
  WS02006239           JUNCTION      0.00   327.78     0  06:02           0         1.4      -0.334
  WS02006251           JUNCTION      0.08   399.19     0  04:50     0.00217        1.28      -0.059
  WS02006252           JUNCTION      0.00   399.42     0  04:50           0        1.08       0.014
  WS02006253           JUNCTION      1.63    75.21     0  04:52     0.00373       0.194       0.131
  WS02006256           JUNCTION      0.00   983.00     0  02:40           0        4.13       0.016
  WS02004138           JUNCTION      0.00   380.00     0  00:00           0        7.52       0.080
  WS02004139           JUNCTION      0.32   394.45     0  00:00     0.00905        7.53       0.598
  WS02004407           JUNCTION      0.00   455.59     0  05:00           0        4.59       0.064
  WS02006228           JUNCTION      0.00   494.91     0  04:54           0        4.67       0.105
  WS02006229           JUNCTION      0.00   496.21     0  04:54           0        4.68       0.230
  WS02006280           JUNCTION      0.00   251.15     0  02:13           0       0.973       0.007
  WS02006284           JUNCTION      0.10   251.13     0  02:13      0.0027       0.975       0.118
  WS02006287           JUNCTION      0.00   250.99     0  02:12           0       0.973       0.074
  WSF200               JUNCTION      0.00   431.53     0  05:03           0        4.52       0.048
  HS02004901           JUNCTION     13.57    13.57     0  02:06      0.0347      0.0348       5.313
  HS02004881           JUNCTION      5.55    48.51     0  02:12      0.0151        0.16       0.044
  HS02004876           JUNCTION      8.95    43.24     0  02:12       0.029       0.145       0.363
  HS02004870           JUNCTION      9.86    34.53     0  02:12      0.0286       0.116       0.092
  HS02004862           JUNCTION      8.13    25.38     0  02:12      0.0343      0.0876       0.192
  HS02004856           JUNCTION      7.32    17.36     0  02:12      0.0215      0.0548       2.698
  HS02004852           JUNCTION      0.00    10.55     0  02:12           0      0.0333       0.150
  HS02004848           JUNCTION     16.25    16.25     0  02:14      0.0684      0.0684       0.064
  HS02004842           JUNCTION      0.00     6.24     0  02:22           0      0.0482      36.957
  HS02004837           JUNCTION     22.24    27.57     0  02:11       0.229       0.264       0.308
  HS02004830           JUNCTION      0.15    27.70     0  02:12     0.00423       0.254       0.486
  HS02004824           JUNCTION     18.14    45.67     0  02:14      0.0896       0.343       0.158
  HS02004817           JUNCTION      0.60    46.26     0  02:14      0.0169       0.359       4.864
  HS02004807           JUNCTION     18.52    63.17     0  02:13      0.0527       0.395       1.081
  HS02004802           JUNCTION      0.00    63.54     0  02:15           0       0.391       1.051
  HS02004799           JUNCTION     14.31   160.21     0  02:10      0.0426       0.511       0.459
  HS02004792           JUNCTION     63.52   146.22     0  02:10       0.185       0.469       0.088
  HS02004788           JUNCTION     21.11    85.05     0  02:11       0.106       0.284       0.136
  HS02004785           JUNCTION      0.15    64.42     0  02:10     0.00423        0.18       0.267
  HS02004777           JUNCTION      0.03    64.87     0  02:09    0.000846        0.18       2.954
  HS02004770           JUNCTION     53.76    66.11     0  02:08       0.148       0.181       1.737
  HS02004480           JUNCTION      0.00   188.80     0  02:11           0       0.597       0.122
  HS02004479           JUNCTION      0.00    29.36     0  02:13           0      0.0986       0.746
  HS02004478           JUNCTION      0.00   250.98     0  02:12           0       0.973       0.060
  YS02001745           JUNCTION     85.37   106.83     0  03:22       0.937       0.938       1.237
  YS02001748           JUNCTION      0.04   182.40     0  03:22     0.00127       0.929       2.613
  YS02001751           JUNCTION      0.01   150.32     0  03:21     0.00031       0.904       2.741
  YS02001754           JUNCTION      0.26   107.58     0  03:25     0.00733       0.887       2.910
  YS02001762           JUNCTION      0.00   121.62     0  03:11           0        1.01       2.212
  YS02001765           JUNCTION      0.00   121.99     0  02:29           0        1.01       2.556
  YS02001767           JUNCTION      0.54   133.84     0  02:32      0.0151        1.04       3.644
  YS02001770           JUNCTION    111.10   134.35     0  02:32        1.09         1.1       3.061
  YS02001774           JUNCTION      0.00    45.08     0  02:10           0      0.0633      68.963
  YS02001779           JUNCTION      0.01    34.06     0  02:33    0.000141      0.0257     158.984
  YS02001882           JUNCTION      0.00     4.41     0  02:03           0     0.00614      38.733
  YS02001884           JUNCTION      0.00    13.04     0  02:03           0       0.024      26.020
  YS02001759           JUNCTION    109.23   228.65     0  02:38        1.01        1.99       1.213
  YS02001887           JUNCTION    145.55   146.02     0  02:31        1.21        1.22       0.598
  YS02001890           JUNCTION      0.00   145.73     0  02:31           0        1.19       0.670
  YS02001898           JUNCTION      0.00   145.81     0  02:39           0        1.18       0.191
  YS02001901           JUNCTION      0.00   147.24     0  02:38           0        1.18       0.479
  YS02001904           JUNCTION      0.00   147.52     0  02:38           0        1.18       0.444
  YS02001907           JUNCTION      0.00   267.79     0  02:42           0        2.53       0.885
  YS02001910           JUNCTION      0.00   121.00     0  02:50           0        1.36       0.758
  YS02001915           JUNCTION     76.92   119.32     0  02:49       0.799        1.37       0.340
  YS02001918           JUNCTION      0.00    39.10     0  03:02           0        0.57       0.210
  YS02001619           JUNCTION     74.65    74.65     0  02:43       0.789       0.789       1.614
  YS02001629           JUNCTION      0.00   141.27     0  03:17           0       0.711       4.333
  YS02001641           JUNCTION      0.00   156.74     0  02:39           0        1.53       1.436
  YS02001644           JUNCTION     81.02   323.28     0  05:17       0.899        2.81       0.992
  YS02001652           JUNCTION      0.00   124.41     0  02:31           0       0.813       3.062
  YS02001655           JUNCTION      0.15   148.77     0  03:16     0.00434       0.838       3.062
  YS02001920           JUNCTION      2.87    39.03     0  03:01      0.0809       0.573       0.372
  YS02001923           JUNCTION      0.04    36.16     0  03:01     0.00106       0.492       0.065
  YS02001926           JUNCTION      0.05    36.14     0  03:01     0.00147       0.493       0.462
  YS02001929           JUNCTION     36.09    36.09     0  03:01       0.492       0.492       0.064
  YS02001658           JUNCTION      0.00   176.37     0  03:19           0       0.861       2.842
  YS02001661           JUNCTION      0.00   120.86     0  03:25           0       0.889       2.509
  YS02001664           JUNCTION    102.74   102.74     0  02:32       0.884       0.891       0.595
  YS02001622           JUNCTION      0.00    97.08     0  02:38           0       0.779       4.281
  YS02001633           JUNCTION     82.27   161.99     0  02:43       0.926        1.59       2.093
  YS02001649           JUNCTION      0.00   341.60     0  02:40           0        3.01       1.278
  YS02001757           JUNCTION      0.00   628.25     0  02:45           0        5.46       1.743
  YS02001895           JUNCTION      0.00   144.99     0  02:38           0        1.18       0.324
  YS02001625           JUNCTION      0.00   140.85     0  03:17           0       0.749       5.589
  YS02163301           JUNCTION      0.00    82.31     0  02:39           0        0.69       3.682
  YS02163601           JUNCTION      0.11   160.01     0  02:43      0.0031        1.55       2.007
  YS02164001           JUNCTION      0.00   157.81     0  02:43           0        1.53       1.411
  YS02001647           JUNCTION      0.00   239.65     0  02:49           0        2.33       1.271
  YSB1154              JUNCTION     15.93    15.93     0  02:10      0.0517      0.0529       2.806
  YSB6556              JUNCTION      0.00    15.80     0  02:11           0      0.0538       2.367
  YSB1174              JUNCTION     15.33    15.33     0  02:06      0.0376      0.0385       3.453
  YSB1171              JUNCTION      0.00    29.28     0  02:11           0      0.0978       6.907
  YS02006553           JUNCTION      0.00   266.01     0  02:43           0        2.52       0.573
  YS02006561           JUNCTION      0.00   396.22     0  02:42           0        3.57       0.031
  YS02006556           JUNCTION      0.00   264.75     0  02:42           0        2.52       0.414
  YS02006558           JUNCTION    122.23   384.73     0  02:42         1.1         3.6       0.115
  YS02001783           JUNCTION      0.00   384.53     0  02:37           0        3.57       0.043
  YS02001784           JUNCTION      1.06   426.49     0  02:31      0.0299         3.6       0.067
  YS02001786           JUNCTION      0.06   423.00     0  02:32     0.00159        3.59       0.068
  YS02001788           JUNCTION      0.07   469.63     0  02:37       0.002        3.59       0.040
  YS02001790           JUNCTION      0.15   526.46     0  02:36     0.00437         3.6       0.010
  YS02001791           JUNCTION      0.00   578.33     0  02:37           0         3.6       0.022
  YS02001793           JUNCTION      0.00   613.69     0  02:37           0        3.61      -0.031
  WSC                  OUTFALL       0.00   821.27     0  05:06           0        12.5       0.000
  JK-storage           STORAGE       0.00   658.93     0  02:40           0        3.76     -16.052
  CC-storage           STORAGE       0.00   629.73     0  02:45           0        5.03       1.312
  XR-storage           STORAGE     354.14   354.14     0  02:41        7.46        8.06      -1.542
  
  
  **********************
  Node Surcharge Summary
  **********************
  
  Surcharging occurs when water rises above the top of the highest conduit.
  ---------------------------------------------------------------------
                                               Max. Height   Min. Depth
                                   Hours       Above Crown    Below Rim
  Node                 Type      Surcharged         Meters       Meters
  ---------------------------------------------------------------------
  WS02006109           JUNCTION        0.15          0.103        1.717
  WS02006231           JUNCTION        0.04          0.022        1.508
  WS02006232           JUNCTION        0.20          0.276        1.204
  WS02006234           JUNCTION        0.13          0.340        0.900
  WS02006235           JUNCTION        0.15          0.418        0.872
  WS02006238           JUNCTION        0.16          0.448        0.982
  WS02006240           JUNCTION        0.13          0.495        0.895
  WS02006242           JUNCTION        0.14          0.507        0.313
  WS02006243           JUNCTION        0.10          0.548        0.222
  WS02006245           JUNCTION        0.08          0.395        0.455
  WS02006247           JUNCTION        0.08          0.385        0.375
  WS02006248           JUNCTION        0.02          0.280        0.100
  WS02006249           JUNCTION        0.04          0.273        0.117
  WS02006239           JUNCTION        0.14          0.399        0.891
  WS02006252           JUNCTION        0.25          0.188        0.912
  WS02006256           JUNCTION        6.29          2.050        0.000
  WS02006228           JUNCTION        0.15          0.121        2.079
  YS02001748           JUNCTION        3.73          0.209        0.981
  YS02001751           JUNCTION        4.32          0.492        0.708
  YS02001754           JUNCTION        4.75          0.710        0.440
  YS02001762           JUNCTION        5.37          0.971        0.179
  YS02001765           JUNCTION        5.32          0.922        0.178
  YS02001767           JUNCTION        5.27          0.881        0.149
  YS02001770           JUNCTION        5.19          0.844        0.076
  YS02001774           JUNCTION        5.36          0.956        0.094
  YS02001779           JUNCTION        4.66          0.680        0.000
  YS02001759           JUNCTION        5.40          1.010        0.200
  YS02001619           JUNCTION        4.24          0.463        0.147
  YS02001629           JUNCTION        4.23          0.455        0.015
  YS02001641           JUNCTION        5.34          0.927        0.173
  YS02001644           JUNCTION        5.34          0.920        0.000
  YS02001652           JUNCTION        4.83          0.741        0.389
  YS02001655           JUNCTION        4.39          0.518        0.682
  YS02001658           JUNCTION        3.78          0.223        1.077
  YS02001622           JUNCTION        4.28          0.485        0.135
  YS02001633           JUNCTION        5.31          0.903        0.157
  YS02001649           JUNCTION        5.38          0.975        0.075
  YS02001757           JUNCTION        5.50          1.106        0.104
  YS02001625           JUNCTION        4.92          0.780        0.000
  YS02163301           JUNCTION        5.24          0.865        0.165
  YS02163601           JUNCTION        5.38          0.971        0.109
  YS02164001           JUNCTION        5.32          0.910        0.190
  YS02001647           JUNCTION        4.87          0.749        0.151
  YS02001790           JUNCTION        0.44          0.562        0.595
  YS02001791           JUNCTION        0.62          0.478        1.442
  YS02001793           JUNCTION        1.06          0.790        1.810
  
  
  *********************
  Node Flooding Summary
  *********************
  
  Flooding refers to all water that overflows a node, whether it ponds or not.
  --------------------------------------------------------------------------
                                                             Total   Maximum
                                 Maximum   Time of Max       Flood    Ponded
                        Hours       Rate    Occurrence      Volume     Depth
  Node                 Flooded       LPS   days hr:min    10^6 ltr    Meters
  --------------------------------------------------------------------------
  WS02006256              1.70    746.15      0  04:50       1.937     0.000
  YS02001779              0.01      2.00      0  06:20       0.000     0.000
  YS02001644              2.14    323.16      0  05:15       0.844     0.000
  YS02001625              0.01      0.48      0  06:01       0.000     0.000
  JK-storage              0.33    372.57      0  03:19       0.277     0.000
  
  
  **********************
  Storage Volume Summary
  **********************
  
  --------------------------------------------------------------------------------------------------
                         Average     Avg  Evap Exfil       Maximum     Max    Time of Max    Maximum
                          Volume    Pcnt  Pcnt  Pcnt        Volume    Pcnt     Occurrence    Outflow
  Storage Unit           1000 m3    Full  Loss  Loss       1000 m3    Full    days hr:min        LPS
  --------------------------------------------------------------------------------------------------
  JK-storage               0.101      35     0     0         0.291     100       0  02:30     983.00
  CC-storage               2.835      18     0     0         3.820      24       0  05:10     399.42
  XR-storage               0.281      30     0     0         0.769      83       0  07:36     380.00
  
  
  ***********************
  Outfall Loading Summary
  ***********************
  
  ---------------------------------------------------------------------------------------------------------------------------------
                         Flow       Avg       Max       Total         Total         Total         Total         Total         Total
                         Freq      Flow      Flow      Volume           COD            SS            TN            TP         NH4-N
  Outfall Node           Pcnt       LPS       LPS    10^6 ltr            kg            kg            kg            kg            kg
  ---------------------------------------------------------------------------------------------------------------------------------
  WSC                   99.99    470.66    821.27      12.477      1653.585      2679.828       140.471        17.263        87.006
  ---------------------------------------------------------------------------------------------------------------------------------
  System                99.99    470.66    821.27      12.477      1653.585      2679.828       140.471        17.263        87.006
  
  
  ********************
  Link Flow Summary
  ********************
  
  -----------------------------------------------------------------------------
                                 Maximum  Time of Max   Maximum    Max/    Max/
                                  |Flow|   Occurrence   |Veloc|    Full    Full
  Link                 Type          LPS  days hr:min     m/sec    Flow   Depth
  -----------------------------------------------------------------------------
  WS02003066WSF200     CONDUIT    431.53     0  05:03      2.68    0.07    0.20
  WS02006287WS02006284 CONDUIT    251.03     0  02:13      1.73    0.12    0.24
  WS02006284WS02006280 CONDUIT    251.15     0  02:13      1.97    0.11    0.22
  WS02006280WS02006229 CONDUIT    251.16     0  02:13      3.17    0.05    0.16
  WS02006229WS02006228 CONDUIT    494.91     0  04:54      0.98    1.64    1.00
  WS02006256WS02006235 CONDUIT    264.10     0  00:32      3.74    2.80    1.00
  WS02006253WS02006251 CONDUIT     73.94     0  04:52      0.53    0.22    1.00
  WS02006252WS02006251 CONDUIT    399.11     0  04:50      3.18    1.46    1.00
  WS02006251WS02006249 CONDUIT    376.34     0  06:00      1.13    1.09    1.00
  WS02006249WS02006248 CONDUIT    370.38     0  06:00      1.19    2.03    1.00
  WS02006248WS02006247 CONDUIT    365.89     0  06:01      1.16    0.80    1.00
  WS02006247WS02006245 CONDUIT    361.23     0  06:01      1.14    2.86    1.00
  WS02006245WS02006243 CONDUIT    356.27     0  06:01      1.18    1.05    1.00
  WS02006243WS02006242 CONDUIT    347.04     0  06:01      1.06    0.74    1.00
  WS02006242WS02006240 CONDUIT    337.32     0  06:02      1.00    1.34    1.00
  WS02006240WS02006239 CONDUIT    327.78     0  06:02      1.04    1.03    1.00
  WS02006239WS02006238 CONDUIT    321.69     0  06:02      0.94    1.03    1.00
  WS02006238WS02006235 CONDUIT    319.67     0  06:03      1.05    0.71    1.00
  WS02006235WS02006234 CONDUIT    479.04     0  04:52      1.24    5.05    1.00
  WS02006234WS02006232 CONDUIT    480.54     0  04:52      1.25    0.97    1.00
  WS02006232WS02006231 CONDUIT    480.95     0  04:52      1.26    1.01    1.00
  WS02006231WS02006230 CONDUIT    479.16     0  04:53      1.41    7.27    0.95
  WS02006230WS02006229 CONDUIT    481.70     0  04:54      1.25   10.72    1.00
  WS02006228WS02006109 CONDUIT    494.90     0  04:54      0.98    2.16    1.00
  WS02006116WS02004401 CONDUIT    463.16     0  04:57      0.93    0.64    0.77
  WS02006115WS02006116 CONDUIT    470.54     0  04:57      0.98    0.60    0.69
  WS02006113WS02006111 CONDUIT    512.07     0  04:55      2.39    0.61    0.44
  WS02006112WS02006115 CONDUIT    484.14     0  04:56      0.79    0.29    0.82
  WS02006111WS02006112 CONDUIT    498.71     0  04:55      1.54    0.24    0.67
  WS02006110WS02006113 CONDUIT    496.39     0  04:55      1.19    0.45    0.77
  WS02006109WS02006110 CONDUIT    496.08     0  04:54      0.99    0.95    0.99
  WS02004411WS02004412 CONDUIT    435.81     0  05:02      0.85    0.62    0.63
  WS02004401WS02004402 CONDUIT    458.70     0  04:58      0.93    0.55    0.80
  WS02004413WS02003067 CONDUIT    431.35     0  05:03      0.99    0.18    0.54
  WS02004412WS02004413 CONDUIT    432.53     0  05:02      0.72    0.29    0.72
  WS02004410WS02004411 CONDUIT    440.69     0  05:01      0.91    0.60    0.61
  WS02004409WS02004410 CONDUIT    447.57     0  05:00      0.99    0.58    0.60
  WS02004407WS02004409 CONDUIT    455.41     0  05:00      1.50    0.16    0.43
  WS02004406WS02004407 CONDUIT    455.59     0  05:00      0.94    0.20    0.59
  WS02004405WS02004406 CONDUIT    455.76     0  05:00      0.76    0.90    0.91
  WS02004404WS02004405 CONDUIT    456.06     0  04:59      1.05    4.47    0.91
  WS02004403WS02004404 CONDUIT    456.17     0  04:59      0.88    0.33    0.87
  WS02004402WS02004403 CONDUIT    456.72     0  04:59      0.94    0.66    0.82
  WS02004139WS02001211 CONDUIT    381.47     0  03:12      0.90    0.48    0.59
  WS02004138WS02004139 CONDUIT    394.13     0  00:00      3.62    0.08    0.43
  WS02003067WS02003066 CONDUIT    431.57     0  05:03      1.07    0.14    0.39
  WS02001213WS02003059 CONDUIT    393.86     0  03:10      0.89    0.65    0.75
  WS02001212WS02001213 CONDUIT    391.54     0  03:11      1.32    0.60    0.45
  WS02001211WS02001212 CONDUIT    390.16     0  03:11      0.78    0.30    0.64
  WS02003072WS02003073 CONDUIT    819.17     0  05:05      1.65    1.77    0.45
  WS02003069WS02003072 CONDUIT    818.88     0  05:05      1.55    0.39    0.47
  WS02003060WS02003069 CONDUIT    818.63     0  05:04      1.80    0.32    0.42
  WS02003059WS02003060 CONDUIT    397.21     0  03:11      0.95    0.26    0.63
  HS02004901HS02004770 CONDUIT     12.70     0  02:10      0.05    0.05    0.34
  HS02004876HS02004881 CONDUIT     43.41     0  02:12      0.66    0.46    0.09
  HS02004870HS02004876 CONDUIT     34.50     0  02:13      0.46    0.02    0.11
  HS02004842HS02004848 CONDUIT      6.24     0  02:22      0.03    0.00    0.28
  HS02004837HS02004842 CONDUIT      6.51     0  02:23      0.42    0.00    0.30
  HS02004830HS02004837 CONDUIT     27.55     0  02:12      0.47    0.03    0.08
  HS02004824HS02004830 CONDUIT     27.68     0  02:12      0.51    0.04    0.08
  HS02004817HS02004824 CONDUIT     45.66     0  02:14      0.17    0.02    0.42
  HS02004770HS02004777 CONDUIT     64.84     0  02:09      0.26    0.12    0.36
  HS02004799HS02004480 CONDUIT    159.93     0  02:11      0.66    0.20    0.35
  HS02004792HS02004799 CONDUIT    146.13     0  02:10      0.75    0.09    0.28
  HS02004788HS02004792 CONDUIT     84.96     0  02:11      0.90    0.06    0.14
  HS02004785HS02004788 CONDUIT     64.32     0  02:11      0.57    0.48    0.16
  HS02004777HS02004785 CONDUIT     64.27     0  02:10      0.31    0.08    0.29
  HS02004480HS02004478 CONDUIT    188.79     0  02:12      1.05    0.80    0.26
  HS02004479HS02004480 CONDUIT     29.67     0  02:13      0.16    0.03    0.34
  HS02004862HS02004870 CONDUIT     25.33     0  02:13      0.51    0.03    0.07
  HS02004848HS02004852 CONDUIT     10.55     0  02:12      0.34    0.01    0.04
  HS02004856HS02004862 CONDUIT     17.31     0  02:13      0.38    0.02    0.07
  HS02004852HS02004856 CONDUIT     10.48     0  02:14      0.15    0.01    0.10
  HS02004802HS02004478 CONDUIT     64.07     0  02:16      0.33    0.06    0.28
  HS02004478WS02006287 CONDUIT    250.99     0  02:12      1.43    0.07    0.20
  HS02004817HS02004807 CONDUIT     46.95     0  02:16      0.13    0.03    0.54
  HS02004807HS02004802 CONDUIT     63.54     0  02:15      0.28    0.12    0.33
  YS02001759YS02001757 CONDUIT    229.43     0  02:38      0.29    0.16    1.00
  YS02001762YS02001759 CONDUIT    124.04     0  03:11      0.17    0.14    1.00
  YS02001765YS02001762 CONDUIT    121.62     0  03:11      0.24    0.11    1.00
  YS02001770YS02001767 CONDUIT    133.31     0  02:32      0.30    0.53    1.00
  YS02001774YS02001770 CONDUIT     45.08     0  02:10      0.13    0.03    1.00
  YS02001779YS02001774 CONDUIT     34.06     0  02:33      0.08    0.02    1.00
  YS02001649YS02001757 CONDUIT    341.90     0  02:44      0.44    0.21    1.00
  YS02001767YS02001765 CONDUIT    121.99     0  02:29      0.27    0.15    1.00
  YS02006561YS02001783 CONDUIT    384.53     0  02:37      1.89    0.20    0.57
  YS02001783YS02001784 CONDUIT    425.43     0  02:31      1.33    0.59    0.86
  YS02001784YS02001785 CONDUIT    422.95     0  02:32      1.47    0.98    0.92
  YS02001788YS02001790 CONDUIT    526.30     0  02:36      1.98    0.39    0.98
  YS02001790YS02001791 CONDUIT    578.33     0  02:37      2.34    0.63    1.00
  YS02001791YS02001793 CONDUIT    613.69     0  02:37      4.67    0.26    1.00
  YS02001910YS02001907 CONDUIT    121.32     0  02:48      0.49    0.07    0.79
  YS02001786YS02001788 CONDUIT    469.56     0  02:37      1.95    0.90    0.93
  YS02001915YS02001910 CONDUIT    121.00     0  02:50      0.45    0.06    0.58
  YS02001918YS02001915 CONDUIT     43.00     0  02:49      0.44    0.02    0.30
  YS02001923YS02001920 CONDUIT     36.16     0  03:01      0.48    0.02    0.15
  YS02001926YS02001923 CONDUIT     36.12     0  03:01      0.53    0.05    0.14
  YS02001929YS02001926 CONDUIT     36.09     0  03:01      0.56    0.02    0.14
  YS02001920YS02001918 CONDUIT     39.10     0  03:02      0.49    0.04    0.17
  YS02001629YS02163301 CONDUIT     82.31     0  02:39      0.11    0.10    1.00
  YS02001619YS02001622 CONDUIT     97.08     0  02:38      0.67    0.14    1.00
  YS02001622YS02001625 CONDUIT    140.85     0  03:17      0.27    0.08    1.00
  YS02001625YS02001629 CONDUIT    141.27     0  03:17      0.27    0.07    1.00
  YS02163301YS02001633 CONDUIT     79.80     0  02:43      0.10    0.08    1.00
  YS02163601YS02164001 CONDUIT    157.81     0  02:43      0.20    0.14    1.00
  YS02164001YS02001641 CONDUIT    156.74     0  02:39      0.20    0.21    1.00
  YS02001641YS02001644 CONDUIT    157.62     0  02:39      0.20    0.51    1.00
  YS02001647YS02001649 CONDUIT    261.91     0  02:40      0.34    0.14    1.00
  YS02006553YS02006556 CONDUIT    264.75     0  02:42      0.37    0.23    0.87
  YS02006556YS02006558 CONDUIT    264.45     0  02:42      0.36    0.21    0.90
  YSB6556YSB1171       CONDUIT     16.09     0  02:14      0.07    0.02    0.61
  YS02001907YS02006553 CONDUIT    266.01     0  02:43      0.30    0.31    0.99
  YS02006558YS02006561 CONDUIT    396.22     0  02:42      2.52    0.88    0.55
  YS02001633YS02163601 CONDUIT    159.90     0  02:43      0.20    0.17    1.00
  YS02001644YS02001647 CONDUIT    239.65     0  02:49      0.31    0.14    1.00
  YS02001745YS02001748 CONDUIT    182.36     0  03:22      1.47    0.07    0.92
  YS02001748YS02001751 CONDUIT    150.31     0  03:21      1.14    0.08    1.00
  YS02001751YS02001754 CONDUIT    107.32     0  03:25      0.96    0.05    1.00
  YS02001754YS02001757 CONDUIT    108.13     0  03:25      0.33    0.04    1.00
  YS02001882YS02001884 CONDUIT      4.41     0  02:03      0.07    0.01    0.51
  YS02001884YS02001887 CONDUIT     13.04     0  02:03      0.05    0.02    0.61
  YS02001890YS02001895 CONDUIT    144.99     0  02:38      0.31    0.07    0.58
  YS02001895YS02001898 CONDUIT    145.81     0  02:39      0.46    0.25    0.44
  YS02001898YS02001901 CONDUIT    147.24     0  02:38      0.36    0.09    0.52
  YS02001901YS02001904 CONDUIT    147.52     0  02:38      0.32    0.23    0.57
  YS02001904YS02001907 CONDUIT    149.09     0  02:38      0.24    0.05    0.73
  YS02001887YS02001890 CONDUIT    145.73     0  02:31      0.27    0.25    0.66
  YS02001652YS02001649 CONDUIT    121.93     0  02:30      0.31    0.06    1.00
  YS02001655YS02001652 CONDUIT    124.41     0  02:31      1.00    0.06    1.00
  YS02001658YS02001655 CONDUIT    148.62     0  03:16      1.32    0.06    1.00
  YS02001661YS02001658 CONDUIT    176.37     0  03:19      1.53    0.07    0.94
  YS02001664YS02001661 CONDUIT    113.57     0  04:15      1.21    0.04    0.70
  YSB1154YSB6556       CONDUIT     15.80     0  02:11      0.19    0.03    0.50
  YSB1174YSB1171       CONDUIT     14.28     0  02:07      0.06    0.02    0.61
  YSB1171HS02004479    CONDUIT     29.36     0  02:13      0.54    0.02    0.48
  HS02004881HS02006253 CONDUIT     48.50     0  02:12      1.81    0.01    0.30
  YS02001793JiankangQianchi CONDUIT    658.93     0  02:40     14.11    0.05    1.00
  YS02001757CaochengTiaoxuchi CONDUIT    629.73     0  02:45      1.23    0.28    1.00
  WSF200WS02003060     CONDUIT    432.24     0  05:03      1.77    0.10    0.31
  1                    CONDUIT    821.27     0  05:06      3.15    0.29    0.37
  CC-Pump-1            PUMP       200.00     0  05:30              1.00
  CC-Pump-2            PUMP       199.71     0  04:50              1.00
  JK-Pump-1            PUMP       300.00     0  02:40              1.00
  JK-Pump-2            PUMP       683.00     0  02:40              1.00
  XR-Pump-1            PUMP        95.00     0  00:00              1.00
  XR-Pump-2            PUMP        95.00     0  00:00              1.00
  XR-Pump-3            PUMP        95.00     0  00:00              1.00
  XR-Pump-4            PUMP        95.00     0  00:00              1.00
  
  
  ***************************
  Flow Classification Summary
  ***************************
  
  -------------------------------------------------------------------------------------
                      Adjusted    ---------- Fraction of Time in Flow Class ---------- 
                       /Actual         Up    Down  Sub   Sup   Up    Down  Norm  Inlet 
  Conduit               Length    Dry  Dry   Dry   Crit  Crit  Crit  Crit  Ltd   Ctrl  
  -------------------------------------------------------------------------------------
  WS02003066WSF200        1.00   0.01  0.07  0.00  0.00  0.92  0.00  0.00  0.76  0.00
  WS02006287WS02006284    1.00   0.04  0.03  0.00  0.75  0.18  0.00  0.00  0.77  0.00
  WS02006284WS02006280    1.00   0.06  0.00  0.00  0.00  0.00  0.00  0.94  0.00  0.00
  WS02006280WS02006229    1.00   0.06  0.00  0.00  0.00  0.00  0.00  0.94  0.00  0.00
  WS02006229WS02006228    1.00   0.00  0.00  0.00  1.00  0.00  0.00  0.00  0.00  0.00
  WS02006256WS02006235    1.00   0.02  0.00  0.00  0.97  0.01  0.00  0.00  0.00  0.00
  WS02006253WS02006251    1.00   0.02  0.03  0.00  0.95  0.00  0.01  0.00  0.00  0.00
  WS02006252WS02006251    1.00   0.36  0.00  0.00  0.00  0.00  0.64  0.00  0.00  0.00
  WS02006251WS02006249    1.00   0.00  0.00  0.00  1.00  0.00  0.00  0.00  0.63  0.00
  WS02006249WS02006248    1.00   0.00  0.01  0.00  0.69  0.00  0.30  0.00  0.00  0.00
  WS02006248WS02006247    1.00   0.01  0.00  0.00  0.97  0.00  0.00  0.02  0.42  0.00
  WS02006247WS02006245    1.00   0.01  0.00  0.00  0.95  0.00  0.00  0.04  0.00  0.00
  WS02006245WS02006243    1.00   0.01  0.00  0.00  0.83  0.00  0.00  0.15  0.01  0.00
  WS02006243WS02006242    1.00   0.01  0.00  0.00  0.97  0.00  0.00  0.01  0.44  0.00
  WS02006242WS02006240    1.00   0.02  0.01  0.00  0.97  0.00  0.00  0.00  0.00  0.00
  WS02006240WS02006239    1.00   0.02  0.00  0.00  0.87  0.00  0.00  0.10  0.02  0.00
  WS02006239WS02006238    1.00   0.02  0.00  0.00  0.98  0.00  0.00  0.00  0.15  0.00
  WS02006238WS02006235    1.00   0.02  0.00  0.00  0.98  0.00  0.00  0.00  0.00  0.00
  WS02006235WS02006234    1.00   0.02  0.00  0.00  0.91  0.00  0.07  0.00  0.00  0.00
  WS02006234WS02006232    1.00   0.02  0.00  0.00  0.98  0.00  0.00  0.00  0.09  0.00
  WS02006232WS02006231    1.00   0.02  0.00  0.00  0.97  0.00  0.01  0.00  0.00  0.00
  WS02006231WS02006230    1.00   0.02  0.00  0.00  0.20  0.00  0.77  0.00  0.00  0.00
  WS02006230WS02006229    1.00   0.00  0.00  0.00  0.99  0.00  0.00  0.01  0.00  0.00
  WS02006228WS02006109    1.00   0.00  0.00  0.00  1.00  0.00  0.00  0.00  0.01  0.00
  WS02006116WS02004401    1.00   0.03  0.00  0.00  0.97  0.00  0.00  0.00  0.00  0.00
  WS02006115WS02006116    1.00   0.03  0.00  0.00  0.96  0.00  0.00  0.00  0.00  0.00
  WS02006113WS02006111    1.00   0.02  0.00  0.00  0.01  0.97  0.00  0.00  0.25  0.00
  WS02006112WS02006115    1.00   0.03  0.01  0.00  0.96  0.00  0.00  0.00  0.00  0.00
  WS02006111WS02006112    1.00   0.03  0.00  0.00  0.97  0.00  0.00  0.01  0.92  0.00
  WS02006110WS02006113    1.00   0.00  0.02  0.00  0.98  0.00  0.00  0.00  0.00  0.00
  WS02006109WS02006110    1.00   0.00  0.00  0.00  0.99  0.00  0.00  0.00  0.00  0.00
  WS02004411WS02004412    1.00   0.05  0.00  0.00  0.95  0.00  0.00  0.00  0.00  0.00
  WS02004401WS02004402    1.00   0.03  0.00  0.00  0.97  0.00  0.00  0.00  0.00  0.00
  WS02004413WS02003067    1.00   0.05  0.02  0.00  0.00  0.00  0.93  0.00  0.00  0.00
  WS02004412WS02004413    1.00   0.05  0.00  0.00  0.95  0.00  0.00  0.00  0.01  0.00
  WS02004410WS02004411    1.00   0.05  0.00  0.00  0.95  0.00  0.00  0.00  0.01  0.00
  WS02004409WS02004410    1.00   0.05  0.00  0.00  0.95  0.00  0.00  0.00  0.03  0.00
  WS02004407WS02004409    1.00   0.05  0.00  0.00  0.95  0.00  0.00  0.00  0.88  0.00
  WS02004406WS02004407    1.00   0.00  0.05  0.00  0.95  0.00  0.00  0.00  0.00  0.00
  WS02004405WS02004406    1.00   0.00  0.00  0.00  1.00  0.00  0.00  0.00  0.04  0.00
  WS02004404WS02004405    1.00   0.00  0.00  0.00  1.00  0.00  0.00  0.00  0.00  0.00
  WS02004403WS02004404    1.00   0.00  0.04  0.00  0.96  0.00  0.00  0.00  0.00  0.00
  WS02004402WS02004403    1.00   0.03  0.00  0.00  0.97  0.00  0.00  0.00  0.00  0.00
  WS02004139WS02001211    1.00   0.00  0.00  0.00  1.00  0.00  0.00  0.00  0.00  0.00
  WS02004138WS02004139    1.00   0.00  0.05  0.00  0.95  0.00  0.00  0.00  1.00  0.00
  WS02003067WS02003066    1.00   0.07  0.01  0.00  0.92  0.00  0.00  0.00  0.00  0.00
  WS02001213WS02003059    1.00   0.00  0.00  0.00  1.00  0.00  0.00  0.00  0.00  0.00
  WS02001212WS02001213    1.00   0.00  0.00  0.00  0.75  0.00  0.25  0.00  0.00  0.00
  WS02001211WS02001212    1.00   0.00  0.00  0.00  1.00  0.00  0.00  0.00  0.00  0.00
  WS02003072WS02003073    1.00   0.00  0.00  0.00  0.00  0.00  0.00  1.00  0.00  0.00
  WS02003069WS02003072    1.00   0.00  0.00  0.00  1.00  0.00  0.00  0.00  0.33  0.00
  WS02003060WS02003069    1.00   0.00  0.00  0.00  0.96  0.04  0.00  0.00  0.24  0.00
  WS02003059WS02003060    1.00   0.00  0.00  0.00  1.00  0.00  0.00  0.00  0.00  0.00
  HS02004901HS02004770    1.00   0.05  0.00  0.00  0.94  0.00  0.00  0.00  0.02  0.00
  HS02004876HS02004881    1.00   0.01  0.00  0.00  0.99  0.00  0.00  0.00  0.00  0.00
  HS02004870HS02004876    1.00   0.00  0.00  0.00  1.00  0.00  0.00  0.00  0.95  0.00
  HS02004842HS02004848    1.00   0.00  0.06  0.00  0.94  0.00  0.00  0.00  0.66  0.00
  HS02004837HS02004842    1.00   0.00  0.00  0.00  1.00  0.00  0.00  0.00  0.11  0.00
  HS02004830HS02004837    1.00   0.00  0.00  0.00  1.00  0.00  0.00  0.00  0.99  0.00
  HS02004824HS02004830    1.00   0.00  0.00  0.00  1.00  0.00  0.00  0.00  0.00  0.00
  HS02004817HS02004824    1.00   0.00  0.00  0.00  1.00  0.00  0.00  0.00  1.00  0.00
  HS02004770HS02004777    1.00   0.00  0.06  0.00  0.94  0.00  0.00  0.00  0.06  0.00
  HS02004799HS02004480    1.00   0.00  0.01  0.00  0.92  0.00  0.06  0.00  0.00  0.00
  HS02004792HS02004799    1.00   0.00  0.00  0.00  1.00  0.00  0.00  0.00  0.98  0.00
  HS02004788HS02004792    1.00   0.00  0.00  0.00  1.00  0.00  0.00  0.00  0.98  0.00
  HS02004785HS02004788    1.00   0.00  0.00  0.00  1.00  0.00  0.00  0.00  0.00  0.00
  HS02004777HS02004785    1.00   0.00  0.00  0.00  1.00  0.00  0.00  0.00  0.18  0.00
  HS02004480HS02004478    1.00   0.06  0.00  0.00  0.76  0.00  0.00  0.17  0.00  0.00
  HS02004479HS02004480    1.00   0.01  0.00  0.00  0.99  0.00  0.00  0.00  0.15  0.00
  HS02004862HS02004870    1.00   0.00  0.00  0.00  1.00  0.00  0.00  0.00  0.05  0.00
  HS02004848HS02004852    1.00   0.06  0.00  0.00  0.94  0.00  0.00  0.00  0.72  0.00
  HS02004856HS02004862    1.00   0.00  0.09  0.00  0.91  0.00  0.00  0.00  0.76  0.00
  HS02004852HS02004856    1.00   0.05  0.01  0.00  0.93  0.00  0.00  0.00  0.83  0.00
  HS02004802HS02004478    1.00   0.06  0.01  0.00  0.93  0.00  0.00  0.00  0.01  0.00
  HS02004478WS02006287    1.00   0.07  0.00  0.00  0.86  0.07  0.00  0.00  0.76  0.00
  HS02004817HS02004807    1.00   0.00  0.06  0.00  0.94  0.00  0.00  0.00  0.00  0.00
  HS02004807HS02004802    1.00   0.06  0.00  0.00  0.94  0.00  0.00  0.00  0.01  0.00
  YS02001759YS02001757    1.00   0.00  0.00  0.00  1.00  0.00  0.00  0.00  0.18  0.00
  YS02001762YS02001759    1.00   0.00  0.00  0.00  1.00  0.00  0.00  0.00  0.04  0.00
  YS02001765YS02001762    1.00   0.00  0.00  0.00  1.00  0.00  0.00  0.00  0.20  0.00
  YS02001770YS02001767    1.00   0.00  0.00  0.00  1.00  0.00  0.00  0.00  0.00  0.00
  YS02001774YS02001770    1.00   0.00  0.07  0.00  0.93  0.00  0.00  0.00  0.05  0.00
  YS02001779YS02001774    1.00   0.00  0.00  0.00  1.00  0.00  0.00  0.00  0.25  0.00
  YS02001649YS02001757    1.00   0.00  0.00  0.00  1.00  0.00  0.00  0.00  0.19  0.00
  YS02001767YS02001765    1.00   0.00  0.00  0.00  1.00  0.00  0.00  0.00  0.01  0.00
  YS02006561YS02001783    1.00   0.10  0.00  0.00  0.04  0.86  0.00  0.00  0.71  0.00
  YS02001783YS02001784    1.00   0.00  0.10  0.00  0.90  0.00  0.00  0.00  0.00  0.00
  YS02001784YS02001785    1.00   0.00  0.00  0.00  1.00  0.00  0.00  0.00  0.24  0.00
  YS02001788YS02001790    1.00   0.00  0.00  0.00  0.22  0.78  0.00  0.00  0.71  0.00
  YS02001790YS02001791    1.00   0.00  0.00  0.00  0.15  0.85  0.00  0.00  0.45  0.00
  YS02001791YS02001793    1.00   0.00  0.00  0.00  0.22  0.78  0.00  0.00  0.05  0.00
  YS02001910YS02001907    1.00   0.00  0.00  0.00  0.99  0.00  0.00  0.01  0.13  0.00
  YS02001786YS02001788    1.00   0.00  0.00  0.00  0.19  0.81  0.00  0.00  0.00  0.00
  YS02001915YS02001910    1.00   0.00  0.00  0.00  1.00  0.00  0.00  0.00  0.22  0.00
  YS02001918YS02001915    1.00   0.00  0.00  0.00  0.99  0.01  0.00  0.00  0.74  0.00
  YS02001923YS02001920    1.00   0.00  0.00  0.00  1.00  0.00  0.00  0.00  1.00  0.00
  YS02001926YS02001923    1.00   0.00  0.03  0.00  0.00  0.00  0.97  0.00  0.00  0.00
  YS02001929YS02001926    1.00   0.00  0.05  0.00  0.95  0.00  0.00  0.00  0.86  0.00
  YS02001920YS02001918    1.00   0.00  0.00  0.00  1.00  0.00  0.00  0.00  0.00  0.00
  YS02001629YS02163301    1.00   0.08  0.01  0.00  0.91  0.00  0.00  0.00  0.00  0.00
  YS02001619YS02001622    1.00   0.05  0.00  0.00  0.95  0.00  0.00  0.00  0.00  0.00
  YS02001622YS02001625    1.00   0.06  0.00  0.00  0.94  0.00  0.00  0.00  0.11  0.00
  YS02001625YS02001629    1.00   0.06  0.05  0.00  0.88  0.00  0.02  0.00  0.00  0.00
  YS02163301YS02001633    1.00   0.00  0.08  0.00  0.92  0.00  0.00  0.00  0.00  0.00
  YS02163601YS02164001    1.00   0.00  0.03  0.00  0.97  0.00  0.00  0.00  0.00  0.00
  YS02164001YS02001641    1.00   0.00  0.03  0.00  0.97  0.00  0.00  0.00  0.07  0.00
  YS02001641YS02001644    1.00   0.00  0.00  0.00  1.00  0.00  0.00  0.00  0.00  0.00
  YS02001647YS02001649    1.00   0.00  0.10  0.00  0.90  0.00  0.00  0.00  0.01  0.00
  YS02006553YS02006556    1.00   0.00  0.00  0.00  1.00  0.00  0.00  0.00  0.03  0.00
  YS02006556YS02006558    1.00   0.00  0.00  0.00  1.00  0.00  0.00  0.00  0.00  0.00
  YSB6556YSB1171          1.00   0.01  0.04  0.00  0.95  0.00  0.00  0.00  0.00  0.00
  YS02001907YS02006553    1.00   0.00  0.01  0.00  0.99  0.00  0.00  0.00  0.00  0.00
  YS02006558YS02006561    1.00   0.10  0.00  0.00  0.00  0.90  0.00  0.00  0.72  0.00
  YS02001633YS02163601    1.00   0.00  0.00  0.00  1.00  0.00  0.00  0.00  0.19  0.00
  YS02001644YS02001647    1.00   0.00  0.10  0.00  0.90  0.00  0.00  0.00  0.00  0.00
  YS02001745YS02001748    1.00   0.00  0.00  0.00  0.85  0.01  0.00  0.14  0.09  0.00
  YS02001748YS02001751    1.00   0.00  0.00  0.00  0.96  0.04  0.00  0.00  0.21  0.00
  YS02001751YS02001754    1.00   0.00  0.00  0.00  0.89  0.00  0.00  0.11  0.01  0.00
  YS02001754YS02001757    1.00   0.00  0.00  0.00  1.00  0.00  0.00  0.00  0.25  0.00
  YS02001882YS02001884    1.00   0.08  0.01  0.00  0.92  0.00  0.00  0.00  0.00  0.00
  YS02001884YS02001887    1.00   0.02  0.03  0.00  0.95  0.00  0.00  0.00  0.00  0.00
  YS02001890YS02001895    1.00   0.00  0.08  0.00  0.91  0.00  0.00  0.00  0.00  0.00
  YS02001895YS02001898    1.00   0.09  0.00  0.00  0.90  0.00  0.02  0.00  0.00  0.00
  YS02001898YS02001901    1.00   0.08  0.01  0.00  0.91  0.00  0.00  0.00  0.02  0.00
  YS02001901YS02001904    1.00   0.08  0.00  0.00  0.92  0.00  0.00  0.00  0.00  0.00
  YS02001904YS02001907    1.00   0.00  0.08  0.00  0.92  0.00  0.00  0.00  0.00  0.00
  YS02001887YS02001890    1.00   0.00  0.00  0.00  0.99  0.00  0.01  0.00  0.00  0.00
  YS02001652YS02001649    1.00   0.00  0.00  0.00  1.00  0.00  0.00  0.00  0.24  0.00
  YS02001655YS02001652    1.00   0.00  0.00  0.00  0.89  0.00  0.00  0.11  0.01  0.00
  YS02001658YS02001655    1.00   0.00  0.07  0.00  0.88  0.05  0.00  0.00  0.08  0.00
  YS02001661YS02001658    1.00   0.07  0.00  0.00  0.85  0.08  0.00  0.00  0.11  0.00
  YS02001664YS02001661    1.00   0.05  0.00  0.00  0.84  0.11  0.00  0.00  0.35  0.00
  YSB1154YSB6556          1.00   0.05  0.00  0.00  0.95  0.00  0.00  0.00  0.02  0.00
  YSB1174YSB1171          1.00   0.02  0.02  0.00  0.96  0.00  0.00  0.00  0.00  0.00
  YSB1171HS02004479       1.00   0.01  0.00  0.00  0.98  0.00  0.00  0.00  0.13  0.00
  HS02004881HS02006253    1.00   0.02  0.00  0.00  0.33  0.01  0.00  0.64  0.14  0.00
  YS02001793JiankangQianchi    1.00   0.00  0.00  0.00  0.64  0.36  0.00  0.00  0.52  0.00
  YS02001757CaochengTiaoxuchi    1.00   0.00  0.12  0.00  0.88  0.00  0.00  0.00  0.00  0.00
  WSF200WS02003060        1.00   0.00  0.01  0.00  0.77  0.22  0.00  0.00  0.72  0.00
  1                       1.00   0.00  0.00  0.00  0.00  1.00  0.00  0.00  0.48  0.00
  
  
  *************************
  Conduit Surcharge Summary
  *************************
  
  ----------------------------------------------------------------------------
                                                           Hours        Hours 
                         --------- Hours Full --------   Above Full   Capacity
  Conduit                Both Ends  Upstream  Dnstream   Normal Flow   Limited
  ----------------------------------------------------------------------------
  WS02006229WS02006228        0.15      0.21      0.15      1.14         0.15
  WS02006256WS02006235        3.87      3.88      6.29      2.76         0.01
  WS02006253WS02006251        0.01      0.01      0.04      0.01         0.01
  WS02006252WS02006251        0.09      0.09      0.25      0.21         0.01
  WS02006251WS02006249        0.02      0.02      0.04      0.07         0.01
  WS02006249WS02006248        0.02      0.02      0.04      0.62         0.01
  WS02006248WS02006247        0.04      0.04      0.08      0.01         0.01
  WS02006247WS02006245        0.08      0.09      0.08      1.14         0.08
  WS02006245WS02006243        0.09      0.09      0.10      0.03         0.01
  WS02006243WS02006242        0.11      0.11      0.14      0.01         0.01
  WS02006242WS02006240        0.13      0.13      0.15      0.16         0.01
  WS02006240WS02006239        0.13      0.13      0.14      0.03         0.01
  WS02006239WS02006238        0.15      0.15      0.16      0.03         0.01
  WS02006238WS02006235        0.16      0.16      0.17      0.01         0.01
  WS02006235WS02006234        0.13      0.13      0.15      3.72         0.01
  WS02006234WS02006232        0.14      0.14      0.20      0.01         0.01
  WS02006232WS02006231        0.04      0.04      0.20      0.01         0.01
  WS02006231WS02006230        0.01      0.01      0.06      4.11         0.01
  WS02006230WS02006229        0.74      0.92      0.74      4.93         0.74
  WS02006228WS02006109        0.15      0.54      0.15      2.74         0.15
  WS02006111WS02006112        0.01      0.01      1.22      0.01         0.01
  WS02006110WS02006113        0.01      0.01      0.35      0.01         0.01
  WS02006109WS02006110        0.01      0.01      0.54      0.01         0.01
  WS02004404WS02004405        0.01      0.01      0.01      4.89         0.01
  WS02003072WS02003073        0.01      0.01      0.01      3.66         0.01
  YS02001759YS02001757        5.40      5.40      5.50      0.01         0.01
  YS02001762YS02001759        5.37      5.37      5.40      0.01         0.01
  YS02001765YS02001762        5.32      5.32      5.37      0.01         0.01
  YS02001770YS02001767        5.26      5.27      5.27      0.01         0.25
  YS02001774YS02001770        5.19      5.19      5.36      0.01         0.01
  YS02001779YS02001774        4.66      4.66      5.36      0.01         0.01
  YS02001649YS02001757        5.38      5.38      5.50      0.01         0.01
  YS02001767YS02001765        5.27      5.27      5.32      0.01         0.01
  YS02001788YS02001790        0.01      0.01      0.44      0.01         0.01
  YS02001790YS02001791        0.44      0.44      0.62      0.01         0.01
  YS02001791YS02001793        0.62      0.62      1.22      0.01         0.01
  YS02001629YS02163301        5.15      5.15      5.24      0.01         0.01
  YS02001619YS02001622        4.24      4.24      4.28      0.01         0.01
  YS02001622YS02001625        4.28      4.28      4.92      0.01         0.01
  YS02001625YS02001629        4.23      4.23      4.92      0.01         0.01
  YS02163301YS02001633        5.24      5.24      5.33      0.01         0.01
  YS02163601YS02164001        5.32      5.32      5.38      0.01         0.01
  YS02164001YS02001641        5.32      5.32      5.34      0.01         0.01
  YS02001641YS02001644        5.34      5.34      5.34      0.01         0.24
  YS02001647YS02001649        4.87      4.87      5.38      0.01         0.01
  YS02001907YS02006553        0.01      0.01      0.09      0.01         0.01
  YS02001633YS02163601        5.31      5.31      5.38      0.01         0.01
  YS02001644YS02001647        4.87      4.87      5.34      0.01         0.01
  YS02001745YS02001748        0.01      0.01      3.73      0.01         0.01
  YS02001748YS02001751        3.92      3.92      4.31      0.01         0.01
  YS02001751YS02001754        4.31      4.31      4.75      0.01         0.01
  YS02001754YS02001757        4.86      4.86      5.50      0.01         0.01
  YS02001652YS02001649        4.91      4.91      5.38      0.01         0.01
  YS02001655YS02001652        4.39      4.39      4.83      0.01         0.01
  YS02001658YS02001655        3.78      3.78      4.39      0.01         0.01
  YS02001661YS02001658        0.01      0.01      3.78      0.01         0.01
  YS02001793JiankangQianchi        1.06      1.06      3.76      0.01         0.01
  YS02001757CaochengTiaoxuchi        4.04      4.04      5.50      0.01         0.01
  
  
  ***************
  Pumping Summary
  ***************
  
  ---------------------------------------------------------------------------------------------------------
                                                  Min       Avg       Max     Total     Power    % Time Off
                        Percent   Number of      Flow      Flow      Flow    Volume     Usage    Pump Curve
  Pump                 Utilized   Start-Ups       LPS       LPS       LPS  10^6 ltr     Kw-hr    Low   High
  ---------------------------------------------------------------------------------------------------------
  CC-Pump-1               27.65           4      0.00    120.98    200.00     0.840      0.55    0.0    0.0
  CC-Pump-2                8.50           2      0.00    106.73    199.71     0.240      0.23    0.0    0.0
  JK-Pump-1               42.55           5      0.00    141.53    300.00     1.653     28.90    0.0    0.0
  JK-Pump-2               38.30           5      0.00    223.95    683.00     2.472     42.65    0.0   96.0
  XR-Pump-1               89.36           3      0.00     87.62     95.00     2.166     42.93    0.0    0.0
  XR-Pump-2               78.71           5      0.00     84.46     95.00     1.824     35.73    0.0    0.0
  XR-Pump-3               76.59           6      0.00     84.36     95.00     1.767     34.49    0.0    0.0
  XR-Pump-4               76.59           6      0.00     84.36     95.00     1.767     34.49    0.0    0.0
  
  
  ***************************
  Link Pollutant Load Summary
  ***************************
  
  ------------------------------------------------------------------------------------------
                                 COD            SS            TN            TP         NH4-N
  Link                            kg            kg            kg            kg            kg
  ------------------------------------------------------------------------------------------
  WS02003066WSF200           270.773       462.458        10.818         1.119         6.162
  WS02006287WS02006284       119.984       208.111         6.504         0.741         3.865
  WS02006284WS02006280       120.407       208.794         6.543         0.746         3.890
  WS02006280WS02006229       120.390       208.764         6.543         0.746         3.889
  WS02006229WS02006228       268.479       458.491        10.395         1.062         5.888
  WS02006256WS02006235        68.186       113.287         2.076         0.188         1.125
  WS02006253WS02006251        18.290        33.241         0.474         0.039         0.244
  WS02006252WS02006251        66.443       111.216         1.452         0.102         0.709
  WS02006251WS02006249        81.323       138.767         1.864         0.138         0.925
  WS02006249WS02006248        80.832       137.934         1.847         0.136         0.916
  WS02006248WS02006247        81.140       138.467         1.856         0.137         0.921
  WS02006247WS02006245        81.153       138.492         1.859         0.137         0.922
  WS02006245WS02006243        80.851       138.025         1.849         0.136         0.917
  WS02006243WS02006242        82.274       140.506         1.885         0.139         0.936
  WS02006242WS02006240        84.661       144.612         1.938         0.143         0.962
  WS02006240WS02006239        87.801       149.919         2.022         0.150         1.006
  WS02006239WS02006238        91.930       156.678         2.152         0.162         1.078
  WS02006238WS02006235        94.535       160.885         2.231         0.169         1.120
  WS02006235WS02006234       149.261       251.650         3.914         0.323         2.035
  WS02006234WS02006232       149.417       251.886         3.925         0.324         2.041
  WS02006232WS02006231       149.116       251.392         3.911         0.323         2.034
  WS02006231WS02006230       148.998       251.243         3.906         0.322         2.030
  WS02006230WS02006229       149.352       251.874         3.927         0.325         2.043
  WS02006228WS02006109       267.918       457.597        10.350         1.056         5.861
  WS02006116WS02004401       275.114       469.636        10.964         1.133         6.242
  WS02006115WS02006116       275.696       470.586        10.987         1.135         6.254
  WS02006113WS02006111       274.601       468.275        11.032         1.142         6.288
  WS02006112WS02006115       276.540       471.980        11.032         1.140         6.282
  WS02006111WS02006112       274.222       467.654        11.013         1.140         6.277
  WS02006110WS02006113       274.979       468.894        11.057         1.145         6.304
  WS02006109WS02006110       276.112       470.734        11.137         1.155         6.353
  WS02004411WS02004412       272.089       464.653        10.894         1.128         6.207
  WS02004401WS02004402       274.286       468.270        10.924         1.129         6.218
  WS02004413WS02003067       270.873       462.606        10.824         1.120         6.165
  WS02004412WS02004413       271.633       463.903        10.870         1.125         6.193
  WS02004410WS02004411       272.359       465.092        10.907         1.129         6.215
  WS02004409WS02004410       272.682       465.626        10.923         1.131         6.224
  WS02004407WS02004409       272.738       465.704        10.923         1.131         6.224
  WS02004406WS02004407       272.484       465.263        10.908         1.129         6.215
  WS02004405WS02004406       273.566       467.041        10.976         1.137         6.256
  WS02004404WS02004405       273.689       467.235        10.955         1.134         6.241
  WS02004403WS02004404       272.990       466.137        10.866         1.123         6.185
  WS02004402WS02004403       273.684       467.286        10.900         1.126         6.205
  WS02004139WS02001211      1250.237      2005.398       116.718        14.523        72.750
  WS02004138WS02004139      1257.520      2017.085       117.389        14.607        73.168
  WS02003067WS02003066       270.791       462.491        10.820         1.119         6.163
  WS02001213WS02003059      1279.729      2052.506       119.613        14.886        74.563
  WS02001212WS02001213      1288.577      2066.694       120.437        14.989        75.077
  WS02001211WS02001212      1292.797      2073.462       120.831        15.038        75.322
  WS02003072WS02003073      1648.011      2670.914       139.856        17.185        86.619
  WS02003069WS02003072      1653.437      2679.616       140.379        17.250        86.945
  WS02003060WS02003069      1656.512      2684.552       140.657        17.285        87.118
  WS02003059WS02003060      1275.253      2045.321       119.203        14.836        74.308
  HS02004901HS02004770         3.152         5.776         0.061         0.004         0.028
  HS02004876HS02004881        12.238        22.588         0.347         0.030         0.182
  HS02004870HS02004876         9.421        17.288         0.301         0.027         0.161
  HS02004842HS02004848         1.682         2.974         0.037         0.002         0.017
  HS02004837HS02004842         6.309        10.341         0.505         0.061         0.310
  HS02004830HS02004837        49.956        81.731         4.258         0.525         2.642
  HS02004824HS02004830        50.706        82.932         4.330         0.534         2.686
  HS02004817HS02004824        57.355        95.133         4.496         0.546         2.771
  HS02004770HS02004777        12.090        22.313         0.260         0.017         0.118
  HS02004799HS02004480        49.993        87.948         2.090         0.221         1.189
  HS02004792HS02004799        46.410        80.909         2.071         0.224         1.189
  HS02004788HS02004792        29.948        51.954         1.609         0.181         0.946
  HS02004785HS02004788        13.585        24.718         0.412         0.036         0.214
  HS02004777HS02004785        13.068        23.882         0.365         0.031         0.185
  HS02004480HS02004478        60.362       107.626         2.221         0.228         1.243
  HS02004479HS02004480        14.779        26.710         0.552         0.059         0.317
  HS02004862HS02004870         7.048        12.647         0.253         0.024         0.139
  HS02004848HS02004852         2.074         3.711         0.045         0.003         0.021
  HS02004856HS02004862         4.004         7.449         0.083         0.005         0.039
  HS02004852HS02004856         2.071         3.704         0.045         0.003         0.020
  HS02004802HS02004478        59.919       100.970         4.309         0.516         2.639
  HS02004478WS02006287       120.161       208.403         6.519         0.743         3.875
  HS02004817HS02004807        55.986        92.943         4.366         0.529         2.690
  HS02004807HS02004802        60.642       102.123         4.379         0.525         2.683
  YS02001759YS02001757       117.704       197.655         2.699         0.193         1.352
  YS02001762YS02001759        62.668       106.102         1.604         0.121         0.824
  YS02001765YS02001762        62.127       105.077         1.617         0.124         0.834
  YS02001770YS02001767        59.648       101.005         1.321         0.085         0.645
  YS02001774YS02001770         4.032         6.856         0.097         0.007         0.049
  YS02001779YS02001774         2.869         4.785         0.132         0.014         0.077
  YS02001649YS02001757       165.681       270.719         3.624         0.260         1.746
  YS02001767YS02001765        62.135       105.015         1.632         0.125         0.844
  YS02006561YS02001783       249.661       416.444         6.966         0.602         3.703
  YS02001783YS02001784       249.600       416.360         6.963         0.602         3.701
  YS02001784YS02001785       256.997       428.218         7.676         0.691         4.147
  YS02001788YS02001790       257.689       429.352         7.750         0.701         4.193
  YS02001790YS02001791       258.805       431.165         7.852         0.713         4.257
  YS02001791YS02001793       258.728       431.043         7.846         0.713         4.254
  YS02001910YS02001907        87.697       143.781         3.504         0.342         1.981
  YS02001786YS02001788       257.244       428.628         7.705         0.695         4.165
  YS02001915YS02001910        87.594       143.565         3.459         0.336         1.951
  YS02001918YS02001915        46.625        73.766         2.529         0.285         1.506
  YS02001923YS02001920        26.612        41.745         0.588         0.042         0.292
  YS02001926YS02001923        26.241        41.148         0.550         0.037         0.268
  YS02001929YS02001926        25.964        40.693         0.518         0.033         0.248
  YS02001920YS02001918        46.550        73.653         2.507         0.282         1.492
  YS02001629YS02163301        29.599        48.316         0.668         0.042         0.309
  YS02001619YS02001622        32.993        53.576         0.747         0.046         0.344
  YS02001622YS02001625        32.252        52.511         0.728         0.045         0.335
  YS02001625YS02001629        31.156        50.881         0.702         0.043         0.324
  YS02163301YS02001633        29.799        48.679         0.670         0.042         0.311
  YS02163601YS02164001        84.054       136.126         1.868         0.134         0.906
  YS02164001YS02001641        83.758       135.652         1.850         0.132         0.895
  YS02001641YS02001644        84.317       136.597         1.850         0.132         0.894
  YS02001647YS02001649       132.579       214.977         2.831         0.201         1.365
  YS02006553YS02006556       181.923       302.452         5.420         0.490         2.936
  YS02006556YS02006558       181.903       302.412         5.385         0.485         2.913
  YSB6556YSB1171               7.594        13.861         0.217         0.021         0.120
  YS02001907YS02006553       181.867       302.374         5.418         0.490         2.936
  YS02006558YS02006561       249.691       416.484         6.966         0.602         3.702
  YS02001633YS02163601        84.663       137.026         1.850         0.130         0.891
  YS02001644YS02001647       134.122       217.166         2.843         0.201         1.368
  YS02001745YS02001748        46.990        78.222         1.103         0.071         0.543
  YS02001748YS02001751        46.456        77.416         1.119         0.074         0.557
  YS02001751YS02001754        45.730        76.291         1.118         0.076         0.559
  YS02001754YS02001757        46.656        77.771         1.287         0.098         0.668
  YS02001882YS02001884         0.664         1.060         0.019         0.002         0.010
  YS02001884YS02001887         2.441         4.033         0.062         0.006         0.033
  YS02001890YS02001895        95.138       159.962         1.932         0.149         0.963
  YS02001895YS02001898        95.005       159.772         1.926         0.148         0.960
  YS02001898YS02001901        94.893       159.615         1.923         0.148         0.958
  YS02001901YS02001904        94.967       159.770         1.945         0.151         0.972
  YS02001904YS02001907        95.813       161.166         2.045         0.164         1.036
  YS02001887YS02001890        95.990       161.279         1.996         0.157         1.003
  YS02001652YS02001649        41.417        68.562         0.966         0.070         0.456
  YS02001655YS02001652        42.382        70.067         0.992         0.072         0.468
  YS02001658YS02001655        42.144        69.607         0.914         0.061         0.416
  YS02001661YS02001658        43.201        71.211         0.940         0.063         0.428
  YS02001664YS02001661        44.156        72.595         0.964         0.065         0.438
  YSB1154YSB6556               7.075        13.034         0.154         0.013         0.079
  YSB1174YSB1171               5.294         9.813         0.152         0.015         0.083
  YSB1171HS02004479           14.668        26.542         0.540         0.058         0.309
  HS02004881HS02006253        13.788        25.569         0.375         0.031         0.195
  YS02001793JiankangQianchi       259.303       431.970         7.849         0.712         4.253
  YS02001757CaochengTiaoxuchi       303.548       505.108         6.713         0.473         3.281
  WSF200WS02003060           270.672       462.302        10.823         1.120         6.165
  1                         1653.585      2679.828       140.471        17.263        87.006
  CC-Pump-1                   51.361        85.929         1.119         0.078         0.545
  CC-Pump-2                   14.911        25.012         0.323         0.023         0.157
  JK-Pump-1                   60.074        99.548         1.845         0.168         1.002
  JK-Pump-2                  113.458       190.315         3.282         0.292         1.762
  XR-Pump-1                  374.979       601.384        35.063         4.364        21.859
  XR-Pump-2                  304.410       488.272        28.421         3.536        17.715
  XR-Pump-3                  290.915       466.679        27.125         3.375        16.905
  XR-Pump-4                  290.915       466.679        27.125         3.375        16.905
  

  Analysis begun on:  Sun Jul 11 09:28:27 2021
  Analysis ended on:  Sun Jul 11 09:28:29 2021
  Total elapsed time: 00:00:02