
  EPA STORM WATER MANAGEMENT MODEL - VERSION 5.1 (Build 5.3.0.dev0)
  --------------------------------------------------------------

  WARNING 04: minimum elevation drop used for Conduit WS02004404WS02004405
  WARNING 03: negative offset ignored for Link YS02001904YS02001907
  
  *********************************************************
  NOTE: The summary statistics displayed in this report are
  based on results found at every computational time step,  
  not just on results from each reporting time step.
  *********************************************************
  
  ****************
  Analysis Options
  ****************
  Flow Units ............... LPS
  Process Models:
    Rainfall/Runoff ........ YES
    RDII ................... NO
    Snowmelt ............... NO
    Groundwater ............ NO
    Flow Routing ........... YES
    Ponding Allowed ........ NO
    Water Quality .......... YES
  Infiltration Method ...... HORTON
  Flow Routing Method ...... DYNWAVE
  Surcharge Method ......... EXTRAN
  Starting Date ............ 08/28/2015 08:00:00
  Ending Date .............. 08/28/2015 15:50:00
  Antecedent Dry Days ...... 8.0
  Report Time Step ......... 00:01:00
  Wet Time Step ............ 00:01:00
  Dry Time Step ............ 00:01:00
  Routing Time Step ........ 5.00 sec
  Variable Time Step ....... YES
  Maximum Trials ........... 8
  Number of Threads ........ 4
  Head Tolerance ........... 0.001500 m
  
  
  **************************        Volume         Depth
  Runoff Quantity Continuity     hectare-m            mm
  **************************     ---------       -------
  Total Precipitation ......         2.730         5.977
  Evaporation Loss .........         0.000         0.000
  Infiltration Loss ........         0.582         1.274
  Surface Runoff ...........         1.597         3.496
  Final Storage ............         0.552         1.208
  Continuity Error (%) .....        -0.022
  
  
  **************************           COD            SS            TN            TP         NH4-N
  Runoff Quality Continuity             kg            kg            kg            kg            kg
  **************************    ----------    ----------    ----------    ----------    ----------
  Initial Buildup ..........     41378.656     70582.865      1804.177       168.684      1032.807
  Surface Buildup ..........        15.053        20.057         2.937         0.271         1.736
  Wet Deposition ...........         0.000         0.000         0.000         0.000         0.000
  Sweeping Removal .........         0.000         0.000         0.000         0.000         0.000
  Infiltration Loss ........        29.483        52.100         0.580         0.039         0.273
  BMP Removal ..............         0.000         0.000         0.000         0.000         0.000
  Surface Runoff ...........       975.666      1672.310        19.687         1.280         9.283
  Remaining Buildup ........     40388.244     68877.975      1786.839       167.635      1024.985
  Continuity Error (%) .....         0.001         0.001         0.000         0.000         0.000
  
  
  **************************        Volume        Volume
  Flow Routing Continuity        hectare-m      10^6 ltr
  **************************     ---------     ---------
  Dry Weather Inflow .......         0.616         6.165
  Wet Weather Inflow .......         1.596        15.962
  Groundwater Inflow .......         0.000         0.000
  RDII Inflow ..............         0.000         0.000
  External Inflow ..........         0.102         1.024
  External Outflow .........         1.568        15.683
  Flooding Loss ............         0.372         3.719
  Evaporation Loss .........         0.000         0.000
  Exfiltration Loss ........         0.000         0.000
  Initial Stored Volume ....         0.076         0.761
  Final Stored Volume ......         0.556         5.559
  Continuity Error (%) .....        -4.393
  
  
  **************************           COD            SS            TN            TP         NH4-N
  Quality Routing Continuity            kg            kg            kg            kg            kg
  **************************    ----------    ----------    ----------    ----------    ----------
  Dry Weather Inflow .......      1541.201      2465.922       147.955        18.494        92.472
  Wet Weather Inflow .......       975.355      1671.822        19.681         1.280         9.279
  Groundwater Inflow .......         0.000         0.000         0.000         0.000         0.000
  RDII Inflow ..............         0.000         0.000         0.000         0.000         0.000
  External Inflow ..........       183.418       293.469        17.608         2.201        11.005
  External Outflow .........      1963.659      3208.915       157.319        19.175        97.021
  Flooding Loss ............       214.565       364.529         5.375         0.439         2.780
  Exfiltration Loss ........         0.000         0.000         0.000         0.000         0.000
  Mass Reacted .............         0.000         0.000         0.000         0.000         0.000
  Initial Stored Mass ......         0.000         0.000         0.000         0.000         0.000
  Final Stored Mass ........       354.545       584.166        12.922         1.263         7.200
  Continuity Error (%) .....         6.193         6.174         5.198         4.999         5.104
  
  
  *************************
  Highest Continuity Errors
  *************************
  Node YS02001774 (31.95%)
  Node HS02004842 (24.15%)
  Node JK-storage (-18.96%)
  Node YS02001884 (18.85%)
  Node YSB1171 (5.49%)
  
  
  ***************************
  Time-Step Critical Elements
  ***************************
  Link WS02006252WS02006251 (59.34%)
  Link WS02006238WS02006235 (12.40%)
  Link WS02006280WS02006229 (12.00%)
  Link YS02001793JiankangQianchi (4.70%)
  Link WS02003066WSF200 (2.09%)
  
  
  ********************************
  Highest Flow Instability Indexes
  ********************************
  Link WS02006113WS02006111 (51)
  Link YS02001779YS02001774 (26)
  Link YS02001774YS02001770 (24)
  Link YS02001619YS02001622 (23)
  Link WS02006111WS02006112 (22)
  
  
  *************************
  Routing Time Step Summary
  *************************
  Minimum Time Step           :     0.50 sec
  Average Time Step           :     1.44 sec
  Maximum Time Step           :     5.00 sec
  Percent in Steady State     :    -0.00
  Average Iterations per Step :     3.96
  Percent Not Converging      :    19.40
  
  
  ***************************
  Subcatchment Runoff Summary
  ***************************
  
  ------------------------------------------------------------------------------------------------------------------------------
                            Total      Total      Total      Total     Imperv       Perv      Total       Total     Peak  Runoff
                           Precip      Runon       Evap      Infil     Runoff     Runoff     Runoff      Runoff   Runoff   Coeff
  Subcatchment                 mm         mm         mm         mm         mm         mm         mm    10^6 ltr      LPS
  ------------------------------------------------------------------------------------------------------------------------------
  sub0                       5.98       0.00       0.00       0.41       5.51       0.00       5.52        0.00     1.74   0.923
  sub1                       5.98       0.00       0.00       0.66       5.23       0.00       5.23        0.03    10.13   0.876
  sub2                       5.98       0.00       0.00       2.21       3.69       0.00       3.69        0.03     9.10   0.617
  sub3                       5.98       0.00       0.00       2.21       3.65       0.00       3.65        0.08    19.00   0.611
  sub4                       5.98       0.00       0.00       0.66       5.09       0.00       5.09        0.11    21.50   0.852
  sub5                       5.98       0.00       0.00       0.42       5.47       0.00       5.47        0.06    18.02   0.915
  sub7                       5.98       0.00       0.00       0.54       5.38       0.00       5.38        0.02     6.11   0.900
  sub8                       5.98       0.00       0.00       0.54       5.37       0.00       5.37        0.03    10.97   0.899
  sub9                       5.98       0.00       0.00       0.54       5.37       0.00       5.37        0.03     8.15   0.898
  sub10                      5.98       0.00       0.00       0.48       5.41       0.00       5.42        0.06    17.88   0.906
  sub11                      5.98       0.00       0.00       0.48       5.43       0.00       5.43        0.06    20.54   0.909
  sub12                      5.98       0.00       0.00       0.77       5.15       0.00       5.16        0.05    16.60   0.863
  sub14                      5.98       0.00       0.00       0.54       5.37       0.00       5.37        0.05    15.98   0.898
  sub15                      5.98       0.00       0.00       1.79       4.12       0.00       4.13        0.07    21.79   0.690
  sub16                      5.98       0.00       0.00       1.97       3.97       0.00       3.97        0.04    14.80   0.664
  sub17                      5.98       0.00       0.00       1.91       4.02       0.00       4.03        0.03    12.06   0.673
  sub22                      5.98       0.00       0.00       2.57       3.37       0.00       3.37        0.21    70.04   0.564
  sub23                      5.98       0.00       0.00       2.21       3.72       0.00       3.72        0.18    59.34   0.623
  sub60                      5.98       0.00       0.00       0.72       3.84       0.00       3.84        1.16   110.29   0.643
  sub61                      5.98       0.00       0.00       1.02       4.04       0.00       4.04        1.25   138.51   0.676
  sub62                      5.98       0.00       0.00       0.48       4.35       0.00       4.35        1.34   141.52   0.729
  sub63                      5.98       0.00       0.00       1.73       3.58       0.00       3.58        1.08   129.31   0.599
  sub64                      5.98       0.00       0.00       0.90       3.68       0.00       3.68        1.12   104.76   0.615
  sub65                      5.98       0.00       0.00       0.78       3.73       0.00       3.73        1.15   106.30   0.624
  sub66                      5.98       0.00       0.00       1.73       3.19       0.00       3.19        0.98    96.04   0.534
  sub67                      5.98       0.00       0.00       0.48       4.72       0.00       4.72        1.46   181.77   0.790
  sub68                      5.98       0.00       0.00       0.84       4.28       0.00       4.28        1.32   153.17   0.717
  sub69                      5.98       0.00       0.00       0.90       4.56       0.00       4.56        1.07   152.07   0.763
  sub70                      5.98       4.65       0.00       3.60       5.78       0.01       5.79        1.32   126.54   0.544
  sub71                      5.98       0.00       0.00       0.48       4.19       0.00       4.19        0.99    98.74   0.701
  sub72                      5.98       0.00       0.00       0.42       3.07       0.00       3.07        0.63    47.74   0.513
  1                          5.98       5.63       0.00       1.32       6.03       1.02       7.05        1.66   122.81   0.607
  2                          5.98       0.00       0.00       2.91       1.37       0.35       1.72        0.69    93.61   0.288
  
  
  ****************************
  Subcatchment Washoff Summary
  ****************************
  
  ------------------------------------------------------------------------------------------
                                 COD            SS            TN            TP         NH4-N
  Subcatchment                    kg            kg            kg            kg            kg
  ------------------------------------------------------------------------------------------
  sub0                         0.924         1.733         0.015         0.001         0.007
  sub1                         3.734         7.083         0.070         0.005         0.033
  sub2                         2.130         3.885         0.047         0.003         0.021
  sub3                         5.145         9.252         0.112         0.007         0.051
  sub4                         8.160        15.348         0.167         0.010         0.080
  sub5                         8.613        16.137         0.151         0.011         0.073
  sub7                         1.983         3.843         0.037         0.002         0.018
  sub8                         2.984         5.893         0.060         0.003         0.029
  sub9                         2.530         4.927         0.049         0.003         0.024
  sub10                        7.149        13.578         0.130         0.009         0.063
  sub11                        7.107        13.698         0.132         0.009         0.064
  sub12                        5.957        11.301         0.106         0.008         0.051
  sub14                        5.370        10.362         0.102         0.007         0.049
  sub15                        6.287        11.552         0.123         0.009         0.057
  sub16                        4.006         7.374         0.077         0.006         0.036
  sub17                        3.670         6.692         0.068         0.005         0.032
  sub22                       18.528        33.320         0.359         0.027         0.166
  sub23                       11.384        21.254         0.252         0.016         0.114
  sub60                       62.760       106.747         1.330         0.077         0.635
  sub61                       79.604       135.143         1.539         0.100         0.738
  sub62                       83.886       144.994         1.723         0.103         0.823
  sub63                       59.654       100.026         1.279         0.086         0.583
  sub64                       74.905       122.597         1.431         0.100         0.678
  sub65                       76.791       126.232         1.480         0.101         0.702
  sub66                       45.097        74.652         1.002         0.062         0.462
  sub67                      126.303       217.099         2.292         0.163         1.103
  sub68                       89.517       153.899         1.789         0.115         0.849
  sub69                       83.985       146.941         1.622         0.109         0.770
  sub70                      127.291       221.969         2.666         0.177         1.231
  sub71                       55.472        96.608         1.219         0.066         0.581
  sub72                       36.753        58.979         0.722         0.047         0.346
  1                           68.937       121.163         1.493         0.100         0.679
  2                           10.325        16.938         0.333         0.020         0.139
  ------------------------------------------------------------------------------------------
  System                    1186.942      2041.220        23.975         1.567        11.283
  
  
  ******************
  Node Depth Summary
  ******************
  
  ---------------------------------------------------------------------------------
                                 Average  Maximum  Maximum  Time of Max    Reported
                                   Depth    Depth      HGL   Occurrence   Max Depth
  Node                 Type       Meters   Meters   Meters  days hr:min      Meters
  ---------------------------------------------------------------------------------
  WS02001211           JUNCTION     0.71     0.79     5.63     0  03:55        0.79
  WS02001212           JUNCTION     0.43     0.50     5.56     0  03:54        0.50
  WS02001213           JUNCTION     0.66     0.75     5.51     0  03:53        0.75
  WS02003069           JUNCTION     0.45     0.57     5.16     0  05:03        0.57
  WS02003072           JUNCTION     0.52     0.63     5.00     0  05:03        0.63
  WS02003073           JUNCTION     0.31     0.39     4.45     0  05:04        0.39
  WS02003060           JUNCTION     0.40     0.50     5.44     0  05:02        0.50
  WS02003066           JUNCTION     0.22     0.30     5.85     0  05:05        0.30
  WS02003059           JUNCTION     0.71     0.80     5.48     0  03:53        0.80
  WS02003067           JUNCTION     0.55     0.70     6.02     0  05:05        0.70
  WS02004401           JUNCTION     0.64     0.86     6.86     0  05:03        0.86
  WS02004402           JUNCTION     0.67     0.88     6.84     0  05:03        0.88
  WS02004403           JUNCTION     0.69     0.90     6.83     0  05:03        0.90
  WS02004404           JUNCTION     0.77     0.97     6.82     0  05:03        0.97
  WS02004406           JUNCTION     0.78     0.96     6.79     0  05:03        0.96
  WS02004409           JUNCTION     0.46     0.67     6.44     0  05:04        0.67
  WS02004410           JUNCTION     0.48     0.69     6.41     0  05:04        0.69
  WS02004411           JUNCTION     0.50     0.69     6.37     0  05:04        0.69
  WS02004412           JUNCTION     0.51     0.70     6.34     0  05:05        0.70
  WS02004413           JUNCTION     0.67     0.86     6.33     0  05:05        0.86
  WS02004405           JUNCTION     0.77     0.96     6.81     0  05:03        0.96
  WS02006109           JUNCTION     0.71     0.99     7.61     0  04:53        0.99
  WS02006110           JUNCTION     0.71     0.94     7.52     0  04:53        0.93
  WS02006111           JUNCTION     0.20     0.29     7.00     0  04:54        0.29
  WS02006112           JUNCTION     0.80     1.07     6.95     0  05:01        1.06
  WS02006113           JUNCTION     0.31     0.46     7.35     0  04:54        0.46
  WS02006115           JUNCTION     0.53     0.76     6.90     0  05:02        0.76
  WS02006116           JUNCTION     0.61     0.84     6.88     0  05:02        0.84
  WS02006230           JUNCTION     0.67     1.13     7.87     0  04:53        1.11
  WS02006231           JUNCTION     0.44     0.87     8.00     0  04:53        0.86
  WS02006232           JUNCTION     0.58     1.13     8.17     0  06:22        1.06
  WS02006234           JUNCTION     0.50     1.28     8.44     0  06:22        1.07
  WS02006235           JUNCTION     0.53     1.17     8.33     0  04:53        1.16
  WS02006238           JUNCTION     0.56     1.20     8.34     0  04:53        1.19
  WS02006240           JUNCTION     0.46     1.27     8.56     0  06:22        1.13
  WS02006242           JUNCTION     0.52     1.42     8.69     0  06:22        1.21
  WS02006243           JUNCTION     0.41     1.39     8.81     0  06:22        1.12
  WS02006245           JUNCTION     0.39     1.34     8.83     0  06:22        1.11
  WS02006247           JUNCTION     0.40     1.17     8.67     0  03:41        1.12
  WS02006248           JUNCTION     0.35     1.08     8.67     0  04:52        1.07
  WS02006249           JUNCTION     0.38     1.09     8.69     0  04:52        1.09
  WS02006239           JUNCTION     0.52     1.19     8.40     0  06:22        1.17
  WS02006251           JUNCTION     0.36     1.30     8.97     0  04:52        1.13
  WS02006252           JUNCTION     0.28     0.86     9.10     0  04:52        0.68
  WS02006253           JUNCTION     0.40     1.39     9.04     0  04:52        1.16
  WS02006256           JUNCTION     1.33     2.35     9.28     0  00:18        2.35
  WS02004138           JUNCTION     0.17     0.20     7.45     0  00:00        0.19
  WS02004139           JUNCTION     0.66     0.73     5.64     0  03:55        0.73
  WS02004407           JUNCTION     0.21     0.30     6.61     0  05:03        0.30
  WS02006228           JUNCTION     0.71     1.03     7.68     0  04:54        1.03
  WS02006229           JUNCTION     0.68     1.03     7.73     0  04:53        1.03
  WS02006280           JUNCTION     0.05     0.17     8.44     0  02:13        0.17
  WS02006284           JUNCTION     0.34     0.51     8.91     0  02:13        0.51
  WS02006287           JUNCTION     0.07     0.24     9.20     0  02:12        0.24
  WSF200               JUNCTION     0.20     0.31     5.54     0  05:07        0.31
  HS02004901           JUNCTION     0.10     0.26    10.08     0  02:10        0.26
  HS02004881           JUNCTION     0.01     0.03     9.06     0  02:12        0.03
  HS02004876           JUNCTION     0.03     0.11     9.14     0  02:08        0.11
  HS02004870           JUNCTION     0.01     0.05     9.34     0  02:13        0.05
  HS02004862           JUNCTION     0.01     0.06     9.44     0  02:13        0.06
  HS02004856           JUNCTION     0.07     0.11     9.54     0  02:13        0.11
  HS02004852           JUNCTION     0.01     0.03     9.55     0  02:14        0.03
  HS02004848           JUNCTION     0.01     0.03     9.64     0  02:12        0.03
  HS02004842           JUNCTION     0.33     0.37     9.64     0  02:12        0.37
  HS02004837           JUNCTION     0.03     0.05     9.63     0  02:12        0.05
  HS02004830           JUNCTION     0.04     0.07     9.54     0  02:13        0.07
  HS02004824           JUNCTION     0.02     0.05     9.45     0  02:15        0.05
  HS02004817           JUNCTION     0.42     0.55     9.40     0  02:13        0.55
  HS02004807           JUNCTION     0.11     0.23     9.40     0  02:13        0.23
  HS02004802           JUNCTION     0.15     0.26     9.39     0  02:13        0.26
  HS02004799           JUNCTION     0.09     0.29     9.51     0  02:11        0.29
  HS02004792           JUNCTION     0.02     0.12     9.64     0  02:10        0.12
  HS02004788           JUNCTION     0.02     0.09     9.99     0  02:11        0.09
  HS02004785           JUNCTION     0.03     0.15    10.05     0  02:11        0.15
  HS02004777           JUNCTION     0.13     0.28    10.07     0  02:10        0.28
  HS02004770           JUNCTION     0.10     0.25    10.08     0  02:10        0.25
  HS02004480           JUNCTION     0.06     0.23     9.47     0  02:11        0.23
  HS02004479           JUNCTION     0.09     0.27     9.47     0  02:11        0.27
  HS02004478           JUNCTION     0.05     0.15     9.38     0  02:12        0.15
  YS02001745           JUNCTION     0.65     0.86     8.37     0  04:27        0.85
  YS02001748           JUNCTION     1.04     1.30     8.38     0  04:27        1.29
  YS02001751           JUNCTION     1.22     1.50     8.38     0  04:31        1.49
  YS02001754           JUNCTION     1.46     1.78     8.39     0  03:57        1.77
  YS02001762           JUNCTION     1.66     2.00     8.40     0  03:50        1.97
  YS02001765           JUNCTION     1.61     1.95     8.40     0  03:50        1.93
  YS02001767           JUNCTION     1.57     1.91     8.40     0  03:50        1.89
  YS02001770           JUNCTION     1.57     1.90     8.40     0  03:50        1.88
  YS02001774           JUNCTION     1.64     1.96     8.39     0  03:50        1.95
  YS02001779           JUNCTION     1.39     1.68     8.37     0  03:49        1.68
  YS02001882           JUNCTION     0.30     0.56     7.28     0  02:43        0.56
  YS02001884           JUNCTION     0.39     0.66     7.28     0  02:43        0.66
  YS02001759           JUNCTION     1.69     2.04     8.40     0  03:57        2.01
  YS02001887           JUNCTION     0.47     0.74     7.28     0  02:43        0.74
  YS02001890           JUNCTION     0.50     0.77     7.27     0  02:43        0.77
  YS02001898           JUNCTION     0.27     0.52     7.26     0  02:43        0.52
  YS02001901           JUNCTION     0.39     0.65     7.26     0  02:42        0.65
  YS02001904           JUNCTION     0.37     0.63     7.26     0  02:44        0.63
  YS02001907           JUNCTION     0.70     0.97     7.26     0  02:44        0.97
  YS02001910           JUNCTION     0.49     0.75     7.26     0  02:45        0.75
  YS02001915           JUNCTION     0.29     0.54     7.26     0  02:43        0.54
  YS02001918           JUNCTION     0.09     0.19     7.26     0  02:44        0.19
  YS02001619           JUNCTION     1.18     1.49     8.42     0  03:40        1.47
  YS02001629           JUNCTION     1.52     1.85     8.40     0  03:40        1.84
  YS02001641           JUNCTION     1.62     1.94     8.38     0  03:41        1.93
  YS02001644           JUNCTION     1.63     1.92     8.35     0  03:39        1.92
  YS02001652           JUNCTION     1.47     1.87     8.47     0  03:54        1.81
  YS02001655           JUNCTION     1.24     1.80     8.65     0  02:57        1.58
  YS02001920           JUNCTION     0.19     0.26     7.27     0  02:45        0.26
  YS02001923           JUNCTION     0.07     0.10     7.36     0  03:01        0.10
  YS02001926           JUNCTION     0.15     0.20     7.65     0  03:01        0.20
  YS02001929           JUNCTION     0.07     0.10     7.80     0  03:01        0.10
  YS02001658           JUNCTION     0.98     1.42     8.57     0  03:54        1.31
  YS02001661           JUNCTION     0.76     1.19     8.59     0  03:54        1.07
  YS02001664           JUNCTION     0.32     0.56     8.48     0  03:55        0.54
  YS02001622           JUNCTION     1.20     1.51     8.41     0  03:40        1.49
  YS02001633           JUNCTION     1.61     1.95     8.41     0  03:40        1.93
  YS02001649           JUNCTION     1.66     2.03     8.42     0  03:54        1.99
  YS02001757           JUNCTION     1.79     2.14     8.40     0  03:57        2.11
  YS02001895           JUNCTION     0.27     0.52     7.27     0  02:42        0.52
  YS02001625           JUNCTION     1.48     1.78     8.38     0  03:31        1.78
  YS02163301           JUNCTION     1.55     1.90     8.42     0  03:41        1.87
  YS02163601           JUNCTION     1.66     2.00     8.40     0  03:41        1.98
  YS02164001           JUNCTION     1.60     1.94     8.40     0  03:41        1.91
  YS02001647           JUNCTION     1.46     1.78     8.39     0  03:54        1.76
  YSB1154              JUNCTION     0.23     0.42     9.48     0  02:11        0.42
  YSB6556              JUNCTION     0.13     0.31     9.47     0  02:11        0.31
  YSB1174              JUNCTION     0.18     0.37     9.47     0  02:11        0.37
  YSB1171              JUNCTION     0.38     0.57     9.47     0  02:11        0.57
  YS02006553           JUNCTION     0.70     0.97     7.25     0  02:43        0.97
  YS02006561           JUNCTION     0.15     0.29     6.95     0  02:37        0.28
  YS02006556           JUNCTION     0.67     0.94     7.25     0  02:44        0.94
  YS02006558           JUNCTION     0.72     0.98     7.25     0  02:44        0.98
  YS02001783           JUNCTION     0.27     0.70     6.84     0  02:28        0.70
  YS02001784           JUNCTION     0.30     0.76     6.83     0  02:28        0.73
  YS02001786           JUNCTION     0.27     0.74     6.77     0  02:28        0.74
  YS02001788           JUNCTION     0.21     0.76     6.74     0  02:27        0.74
  YS02001790           JUNCTION     0.28     1.96     7.60     0  04:12        1.04
  YS02001791           JUNCTION     0.24     1.26     6.73     0  04:12        1.16
  YS02001793           JUNCTION     0.30     3.04     7.87     0  04:08        1.78
  WSC                  OUTFALL      0.31     0.39     1.06     0  05:05        0.39
  JK-storage           STORAGE      1.85     5.80     6.60     0  02:26        5.80
  CC-storage           STORAGE      1.07     1.38     8.38     0  04:26        1.38
  XR-storage           STORAGE      1.97     5.00     3.00     0  00:00        4.91
  
  
  *******************
  Node Inflow Summary
  *******************
  
  -------------------------------------------------------------------------------------------------
                                  Maximum  Maximum                  Lateral       Total        Flow
                                  Lateral    Total  Time of Max      Inflow      Inflow     Balance
                                   Inflow   Inflow   Occurrence      Volume      Volume       Error
  Node                 Type           LPS      LPS  days hr:min    10^6 ltr    10^6 ltr     Percent
  -------------------------------------------------------------------------------------------------
  WS02001211           JUNCTION      7.35   389.47     0  04:02       0.207        8.82       0.229
  WS02001212           JUNCTION      0.00   391.59     0  04:01           0         8.8       0.148
  WS02001213           JUNCTION      0.00   393.71     0  04:01           0        8.79       0.178
  WS02003069           JUNCTION      0.32   909.46     0  05:03     0.00902        15.7       0.097
  WS02003072           JUNCTION      0.00   908.97     0  05:03           0        15.7       0.139
  WS02003073           JUNCTION      1.82   910.65     0  05:04      0.0514        15.7       0.149
  WS02003060           JUNCTION     16.53   909.02     0  05:02       0.466        15.7       0.094
  WS02003066           JUNCTION      0.00   543.61     0  05:05           0        6.49       0.039
  WS02003059           JUNCTION      0.00   397.20     0  04:01           0        8.78       0.266
  WS02003067           JUNCTION      0.00   543.54     0  05:05           0        6.49       0.092
  WS02004401           JUNCTION      0.00   547.18     0  05:02           0        6.63       0.195
  WS02004402           JUNCTION      0.00   546.80     0  05:03           0        6.62       0.194
  WS02004403           JUNCTION      0.00   546.59     0  05:03           0        6.61       0.186
  WS02004404           JUNCTION      0.16   546.57     0  05:03     0.00457         6.6       0.151
  WS02004406           JUNCTION      0.00   546.63     0  05:03           0        6.58       0.369
  WS02004409           JUNCTION      0.00   546.06     0  05:03           0        6.55       0.104
  WS02004410           JUNCTION      0.00   545.08     0  05:04           0        6.54       0.137
  WS02004411           JUNCTION      0.00   544.39     0  05:04           0        6.53       0.154
  WS02004412           JUNCTION      0.00   543.96     0  05:04           0        6.52       0.184
  WS02004413           JUNCTION      0.00   543.69     0  05:05           0        6.51       0.302
  WS02004405           JUNCTION      0.04   546.56     0  05:03     0.00107        6.59       0.222
  WS02006109           JUNCTION      1.23   551.67     0  04:53      0.0347        6.66       0.094
  WS02006110           JUNCTION      0.00   551.43     0  04:53           0        6.65       0.159
  WS02006111           JUNCTION      0.00   573.18     0  04:54           0        6.64       0.018
  WS02006112           JUNCTION     12.06   553.03     0  05:02      0.0345        6.67       0.312
  WS02006113           JUNCTION      0.00   552.01     0  04:54           0        6.64       0.043
  WS02006115           JUNCTION      0.00   552.92     0  05:02           0        6.65       0.149
  WS02006116           JUNCTION      0.00   548.00     0  05:02           0        6.64       0.124
  WS02006230           JUNCTION     10.28   531.73     0  04:54        0.29        5.52       0.091
  WS02006231           JUNCTION      0.00   521.60     0  04:56           0        5.23       0.020
  WS02006232           JUNCTION      0.00   521.61     0  04:55           0        5.23       0.106
  WS02006234           JUNCTION      0.00   522.03     0  04:59           0        5.23      -0.022
  WS02006235           JUNCTION      0.00   522.38     0  04:54           0        5.36       0.063
  WS02006238           JUNCTION      0.00   395.83     0  05:30           0        3.03       0.005
  WS02006240           JUNCTION      0.00   395.92     0  05:30           0        2.92       0.028
  WS02006242           JUNCTION      0.00   396.03     0  05:30           0        2.87       0.031
  WS02006243           JUNCTION      0.00   395.90     0  05:30           0        2.82      -0.180
  WS02006245           JUNCTION      0.00   396.12     0  05:30           0        2.81       0.211
  WS02006247           JUNCTION      0.00   395.93     0  05:30           0         2.8       0.020
  WS02006248           JUNCTION      0.00   396.27     0  05:30           0         2.8      -0.069
  WS02006249           JUNCTION      0.00   431.44     0  04:52           0        2.84       0.089
  WS02006239           JUNCTION      0.00   396.23     0  05:30           0        2.98      -0.176
  WS02006251           JUNCTION      0.08   414.32     0  04:52     0.00217         2.9      -0.007
  WS02006252           JUNCTION      0.00   400.00     0  04:00           0        2.64       0.007
  WS02006253           JUNCTION      1.74   133.72     0  04:51     0.00447       0.257       0.048
  WS02006256           JUNCTION      0.00   983.00     0  02:40           0        5.01       0.044
  WS02004138           JUNCTION      0.00   380.00     0  00:00           0        8.64       0.049
  WS02004139           JUNCTION      0.32   394.45     0  00:00     0.00905        8.64       0.311
  WS02004407           JUNCTION      0.00   546.28     0  05:03           0        6.55       0.043
  WS02006228           JUNCTION      0.00   550.38     0  04:53           0        6.63       0.069
  WS02006229           JUNCTION      0.00   549.28     0  04:53           0        6.64       0.138
  WS02006280           JUNCTION      0.00   282.21     0  02:13           0        1.13       0.006
  WS02006284           JUNCTION      0.10   282.18     0  02:12      0.0027        1.13       0.105
  WS02006287           JUNCTION      0.00   282.05     0  02:12           0        1.13       0.063
  WSF200               JUNCTION      0.00   543.62     0  05:05           0        6.48       0.031
  HS02004901           JUNCTION     14.80    14.80     0  02:07      0.0415      0.0417       4.401
  HS02004881           JUNCTION      6.11    55.47     0  02:12      0.0181       0.192       0.060
  HS02004876           JUNCTION     10.13    49.57     0  02:12      0.0348       0.175       0.304
  HS02004870           JUNCTION     10.97    39.66     0  02:12      0.0343        0.14       0.076
  HS02004862           JUNCTION      9.30    29.34     0  02:13        0.04       0.106       0.160
  HS02004856           JUNCTION      8.15    20.12     0  02:12      0.0258      0.0672       2.193
  HS02004852           JUNCTION      0.00    12.42     0  02:12           0      0.0414       0.124
  HS02004848           JUNCTION     19.00    19.00     0  02:14      0.0822      0.0822       0.053
  HS02004842           JUNCTION      0.00     7.14     0  02:23           0      0.0538      31.847
  HS02004837           JUNCTION     24.23    30.36     0  02:11       0.239        0.28       0.290
  HS02004830           JUNCTION      0.15    30.49     0  02:12     0.00423        0.27       0.459
  HS02004824           JUNCTION     21.55    51.85     0  02:15       0.108       0.376       0.143
  HS02004817           JUNCTION      0.60    52.44     0  02:15      0.0169       0.393       4.432
  HS02004807           JUNCTION     20.54    71.44     0  02:14      0.0631       0.439       0.971
  HS02004802           JUNCTION      0.00    71.85     0  02:15           0       0.435       0.943
  HS02004799           JUNCTION     15.98   179.38     0  02:10      0.0511       0.603       0.395
  HS02004792           JUNCTION     70.32   163.64     0  02:10       0.221       0.552       0.074
  HS02004788           JUNCTION     23.46    95.13     0  02:11       0.118       0.332       0.116
  HS02004785           JUNCTION      0.15    72.00     0  02:10     0.00423       0.216       0.222
  HS02004777           JUNCTION      0.03    72.32     0  02:09    0.000846       0.216       2.450
  HS02004770           JUNCTION     59.34    73.24     0  02:08       0.178       0.218       1.444
  HS02004480           JUNCTION      0.00   211.77     0  02:11           0       0.706       0.107
  HS02004479           JUNCTION      0.00    33.08     0  02:12           0       0.116       0.632
  HS02004478           JUNCTION      0.00   282.04     0  02:12           0        1.13       0.051
  YS02001745           JUNCTION    110.30   122.12     0  03:01        1.16        1.16       0.994
  YS02001748           JUNCTION      0.04   307.33     0  02:51     0.00127        1.17       2.036
  YS02001751           JUNCTION      0.01   361.74     0  02:49     0.00031        1.14       1.936
  YS02001754           JUNCTION      0.26   187.18     0  02:55     0.00733        1.12       2.235
  YS02001762           JUNCTION      0.00   178.17     0  02:49           0        1.26       1.721
  YS02001765           JUNCTION      0.00   174.61     0  02:49           0        1.26       1.998
  YS02001767           JUNCTION      0.54   172.37     0  02:49      0.0151        1.28       2.876
  YS02001770           JUNCTION    141.67   172.47     0  02:49        1.34        1.36       2.383
  YS02001774           JUNCTION      0.00    50.08     0  02:10           0      0.0791      46.946
  YS02001779           JUNCTION      0.01    41.09     0  02:52    0.000141      0.0384      66.042
  YS02001882           JUNCTION      0.00     4.88     0  02:03           0     0.00699      35.125
  YS02001884           JUNCTION      0.00    13.92     0  02:04           0      0.0274      23.236
  YS02001759           JUNCTION    138.55   317.54     0  02:49        1.25        2.47       0.944
  YS02001887           JUNCTION    182.22   182.41     0  02:33        1.47        1.48       0.506
  YS02001890           JUNCTION      0.00   181.58     0  02:33           0        1.45       0.565
  YS02001898           JUNCTION      0.00   180.36     0  02:34           0        1.44       0.170
  YS02001901           JUNCTION      0.00   180.00     0  02:34           0        1.44       0.408
  YS02001904           JUNCTION      0.00   179.43     0  02:39           0        1.44       0.378
  YS02001907           JUNCTION      0.00   330.07     0  02:49           0        3.11       0.730
  YS02001910           JUNCTION      0.00   152.62     0  03:01           0        1.69       0.630
  YS02001915           JUNCTION     98.76   151.36     0  02:58       0.989        1.69       0.291
  YS02001918           JUNCTION      0.00    52.16     0  03:02           0       0.703       0.192
  YS02001619           JUNCTION     96.04    96.04     0  02:46       0.978       0.978       1.247
  YS02001629           JUNCTION      0.00   198.01     0  02:53           0       0.898       3.254
  YS02001641           JUNCTION      0.00   217.68     0  02:50           0        1.95       1.086
  YS02001644           JUNCTION    104.80   451.98     0  04:31        1.12        3.42       0.790
  YS02001652           JUNCTION      0.00   181.06     0  02:57           0        1.02       2.392
  YS02001655           JUNCTION      0.15   360.33     0  02:55     0.00434        1.05       2.130
  YS02001920           JUNCTION      2.87    50.64     0  03:01      0.0809       0.705       0.326
  YS02001923           JUNCTION      0.04    47.77     0  03:01     0.00106       0.624       0.058
  YS02001926           JUNCTION      0.05    47.78     0  03:01     0.00147       0.626       0.404
  YS02001929           JUNCTION     47.74    47.74     0  03:01       0.625       0.625       0.057
  YS02001658           JUNCTION      0.00   356.28     0  02:57           0        1.09       1.991
  YS02001661           JUNCTION      0.00   419.40     0  03:47           0        1.29       1.194
  YS02001664           JUNCTION    129.31   364.01     0  03:48        1.08        1.27       0.499
  YS02001622           JUNCTION      0.00   144.10     0  02:55           0       0.967       3.394
  YS02001633           JUNCTION    106.50   218.94     0  02:50        1.15        2.01       1.628
  YS02001649           JUNCTION      0.00   478.03     0  02:57           0        3.81       0.991
  YS02001757           JUNCTION      0.00   835.29     0  02:50           0        6.96       1.346
  YS02001895           JUNCTION      0.00   180.90     0  02:34           0        1.45       0.278
  YS02001625           JUNCTION      0.00   198.71     0  02:53           0       0.935       4.389
  YS02163301           JUNCTION      0.00   112.93     0  03:00           0       0.881       2.818
  YS02163601           JUNCTION      0.11   218.28     0  02:50      0.0031        1.97       1.561
  YS02164001           JUNCTION      0.00   218.53     0  02:50           0        1.95       1.061
  YS02001647           JUNCTION      0.00   321.88     0  02:50           0        2.91       0.977
  YSB1154              JUNCTION     18.02    18.02     0  02:10      0.0619      0.0631       2.340
  YSB6556              JUNCTION      0.00    17.93     0  02:12           0      0.0641       1.984
  YSB1174              JUNCTION     16.60    16.60     0  02:06      0.0451      0.0458       2.885
  YSB1171              JUNCTION      0.00    33.00     0  02:11           0       0.115       5.806
  YS02006553           JUNCTION      0.00   330.31     0  02:49           0         3.1       0.473
  YS02006561           JUNCTION      0.00   517.44     0  02:49           0        4.39       0.011
  YS02006556           JUNCTION      0.00   330.55     0  02:49           0        3.11       0.342
  YS02006558           JUNCTION    154.05   484.48     0  02:49        1.34        4.42       0.108
  YS02001783           JUNCTION      0.00   479.38     0  02:49           0        4.39       0.040
  YS02001784           JUNCTION      1.06   491.78     0  02:37      0.0299        4.42       0.062
  YS02001786           JUNCTION      0.06   507.91     0  02:37     0.00159        4.42       0.060
  YS02001788           JUNCTION      0.07   552.46     0  02:36       0.002        4.42       0.038
  YS02001790           JUNCTION      0.15   600.12     0  02:36     0.00437        4.42      -0.001
  YS02001791           JUNCTION      0.00   640.14     0  02:36           0        4.42       0.007
  YS02001793           JUNCTION      0.00   665.27     0  02:37           0        4.43      -0.067
  WSC                  OUTFALL       0.00   910.53     0  05:05           0        15.7       0.000
  JK-storage           STORAGE       0.00   733.28     0  02:40           0        4.58     -15.941
  CC-storage           STORAGE       0.00   837.88     0  02:50           0        6.57       1.001
  XR-storage           STORAGE     400.38   400.38     0  02:49        7.98        8.58      -1.899
  
  
  **********************
  Node Surcharge Summary
  **********************
  
  Surcharging occurs when water rises above the top of the highest conduit.
  ---------------------------------------------------------------------
                                               Max. Height   Min. Depth
                                   Hours       Above Crown    Below Rim
  Node                 Type      Surcharged         Meters       Meters
  ---------------------------------------------------------------------
  WS02006109           JUNCTION        1.55          0.175        1.645
  WS02006110           JUNCTION        0.24          0.025        1.825
  WS02006112           JUNCTION        0.29          0.068        1.612
  WS02006230           JUNCTION        0.18          0.049        1.521
  WS02006231           JUNCTION        0.33          0.162        1.368
  WS02006232           JUNCTION        1.29          0.433        1.047
  WS02006234           JUNCTION        0.64          0.559        0.681
  WS02006235           JUNCTION        0.88          0.459        0.831
  WS02006238           JUNCTION        1.04          0.479        0.951
  WS02006240           JUNCTION        0.78          0.555        0.835
  WS02006242           JUNCTION        1.04          0.688        0.132
  WS02006243           JUNCTION        0.73          0.683        0.087
  WS02006245           JUNCTION        0.67          0.632        0.218
  WS02006247           JUNCTION        0.73          0.459        0.301
  WS02006248           JUNCTION        0.53          0.359        0.021
  WS02006249           JUNCTION        0.63          0.390        0.000
  WS02006239           JUNCTION        0.81          0.454        0.836
  WS02006251           JUNCTION        0.16          0.272        0.908
  WS02006252           JUNCTION        1.39          0.462        0.638
  WS02006253           JUNCTION        0.17          0.353        2.127
  WS02006256           JUNCTION        6.51          2.050        0.000
  WS02006228           JUNCTION        1.45          0.204        1.996
  YS02001748           JUNCTION        4.38          0.221        0.969
  YS02001751           JUNCTION        4.75          0.500        0.700
  YS02001754           JUNCTION        5.15          0.731        0.419
  YS02001762           JUNCTION        5.50          1.002        0.148
  YS02001765           JUNCTION        5.47          0.955        0.145
  YS02001767           JUNCTION        5.45          0.913        0.117
  YS02001770           JUNCTION        5.43          0.871        0.049
  YS02001774           JUNCTION        5.48          0.965        0.085
  YS02001779           JUNCTION        5.04          0.680        0.000
  YS02001759           JUNCTION        5.52          1.038        0.172
  YS02001619           JUNCTION        4.70          0.488        0.122
  YS02001629           JUNCTION        4.71          0.470        0.000
  YS02001641           JUNCTION        5.48          0.945        0.155
  YS02001644           JUNCTION        5.48          0.920        0.000
  YS02001652           JUNCTION        5.28          0.845        0.285
  YS02001655           JUNCTION        4.81          0.805        0.395
  YS02001658           JUNCTION        4.40          0.423        0.877
  YS02001661           JUNCTION        0.01          0.120        1.270
  YS02001622           JUNCTION        4.74          0.505        0.115
  YS02001633           JUNCTION        5.46          0.932        0.128
  YS02001649           JUNCTION        5.50          1.029        0.021
  YS02001757           JUNCTION        5.58          1.138        0.072
  YS02001625           JUNCTION        5.37          0.780        0.000
  YS02163301           JUNCTION        5.44          0.899        0.131
  YS02163601           JUNCTION        5.50          1.004        0.076
  YS02164001           JUNCTION        5.47          0.938        0.162
  YS02001647           JUNCTION        5.32          0.781        0.119
  YS02001790           JUNCTION        0.64          1.157        0.000
  YS02001791           JUNCTION        0.79          0.462        1.458
  YS02001793           JUNCTION        1.16          2.042        0.558
  
  
  *********************
  Node Flooding Summary
  *********************
  
  Flooding refers to all water that overflows a node, whether it ponds or not.
  --------------------------------------------------------------------------
                                                             Total   Maximum
                                 Maximum   Time of Max       Flood    Ponded
                        Hours       Rate    Occurrence      Volume     Depth
  Node                 Flooded       LPS   days hr:min    10^6 ltr    Meters
  --------------------------------------------------------------------------
  WS02006249              0.15    111.15      0  04:52       0.038     0.000
  WS02006256              2.02    767.33      0  06:22       2.575     0.000
  YS02001779              0.45     25.30      0  04:32       0.012     0.000
  YS02001629              0.01      6.10      0  03:40       0.000     0.000
  YS02001644              1.63    451.34      0  04:31       0.843     0.000
  YS02001625              0.05     26.21      0  03:40       0.001     0.000
  YS02001790              0.01     89.84      0  04:12       0.000     0.000
  JK-storage              0.39    292.00      0  04:16       0.252     0.000
  
  
  **********************
  Storage Volume Summary
  **********************
  
  --------------------------------------------------------------------------------------------------
                         Average     Avg  Evap Exfil       Maximum     Max    Time of Max    Maximum
                          Volume    Pcnt  Pcnt  Pcnt        Volume    Pcnt     Occurrence    Outflow
  Storage Unit           1000 m3    Full  Loss  Loss       1000 m3    Full    days hr:min        LPS
  --------------------------------------------------------------------------------------------------
  JK-storage               0.093      32     0     0         0.291     100       0  02:26     983.00
  CC-storage               2.986      19     0     0         3.836      24       0  04:26     400.00
  XR-storage               0.236      25     0     0         0.600      65       0  00:00     380.00
  
  
  ***********************
  Outfall Loading Summary
  ***********************
  
  ---------------------------------------------------------------------------------------------------------------------------------
                         Flow       Avg       Max       Total         Total         Total         Total         Total         Total
                         Freq      Flow      Flow      Volume           COD            SS            TN            TP         NH4-N
  Outfall Node           Pcnt       LPS       LPS    10^6 ltr            kg            kg            kg            kg            kg
  ---------------------------------------------------------------------------------------------------------------------------------
  WSC                   99.99    621.12    910.53      15.683      1963.728      3209.026       157.325        19.176        97.025
  ---------------------------------------------------------------------------------------------------------------------------------
  System                99.99    621.12    910.53      15.683      1963.728      3209.026       157.325        19.176        97.025
  
  
  ********************
  Link Flow Summary
  ********************
  
  -----------------------------------------------------------------------------
                                 Maximum  Time of Max   Maximum    Max/    Max/
                                  |Flow|   Occurrence   |Veloc|    Full    Full
  Link                 Type          LPS  days hr:min     m/sec    Flow   Depth
  -----------------------------------------------------------------------------
  WS02003066WSF200     CONDUIT    543.62     0  05:05      2.75    0.09    0.23
  WS02006287WS02006284 CONDUIT    282.09     0  02:12      1.80    0.13    0.25
  WS02006284WS02006280 CONDUIT    282.21     0  02:13      2.04    0.12    0.23
  WS02006280WS02006229 CONDUIT    282.22     0  02:13      3.29    0.06    0.17
  WS02006229WS02006228 CONDUIT    550.38     0  04:53      1.09    1.82    1.00
  WS02006256WS02006235 CONDUIT    260.94     0  06:12      3.69    2.76    1.00
  WS02006253WS02006251 CONDUIT    132.35     0  04:51      0.55    0.40    1.00
  WS02006252WS02006251 CONDUIT    404.52     0  04:52      3.22    1.48    1.00
  WS02006251WS02006249 CONDUIT    431.44     0  04:52      1.13    1.24    1.00
  WS02006249WS02006248 CONDUIT    396.27     0  05:30      1.19    2.17    1.00
  WS02006248WS02006247 CONDUIT    395.93     0  05:30      1.16    0.86    1.00
  WS02006247WS02006245 CONDUIT    396.12     0  05:30      1.13    3.14    1.00
  WS02006245WS02006243 CONDUIT    395.90     0  05:30      1.16    1.17    1.00
  WS02006243WS02006242 CONDUIT    396.03     0  05:30      1.05    0.85    1.00
  WS02006242WS02006240 CONDUIT    395.92     0  05:30      1.03    1.57    1.00
  WS02006240WS02006239 CONDUIT    396.23     0  05:30      1.03    1.25    1.00
  WS02006239WS02006238 CONDUIT    395.83     0  05:30      1.03    1.27    1.00
  WS02006238WS02006235 CONDUIT    396.27     0  05:30      1.03    0.88    1.00
  WS02006235WS02006234 CONDUIT    522.03     0  04:59      1.36    5.51    1.00
  WS02006234WS02006232 CONDUIT    521.61     0  04:55      1.36    1.06    1.00
  WS02006232WS02006231 CONDUIT    521.60     0  04:56      1.36    1.09    1.00
  WS02006231WS02006230 CONDUIT    521.45     0  04:54      1.38    7.91    1.00
  WS02006230WS02006229 CONDUIT    534.26     0  04:53      1.39   11.89    1.00
  WS02006228WS02006109 CONDUIT    550.44     0  04:53      1.10    2.40    1.00
  WS02006116WS02004401 CONDUIT    547.18     0  05:02      0.96    0.75    0.85
  WS02006115WS02006116 CONDUIT    548.00     0  05:02      1.05    0.70    0.77
  WS02006113WS02006111 CONDUIT    573.18     0  04:54      2.48    0.69    0.47
  WS02006112WS02006115 CONDUIT    552.92     0  05:02      0.78    0.33    0.87
  WS02006111WS02006112 CONDUIT    552.96     0  05:02      1.53    0.26    0.68
  WS02006110WS02006113 CONDUIT    552.01     0  04:54      1.30    0.50    0.79
  WS02006109WS02006110 CONDUIT    551.43     0  04:53      1.10    1.06    1.00
  WS02004411WS02004412 CONDUIT    543.96     0  05:04      0.93    0.77    0.70
  WS02004401WS02004402 CONDUIT    546.80     0  05:03      0.96    0.66    0.87
  WS02004413WS02003067 CONDUIT    543.54     0  05:05      1.12    0.23    0.59
  WS02004412WS02004413 CONDUIT    543.69     0  05:05      0.83    0.36    0.78
  WS02004410WS02004411 CONDUIT    544.39     0  05:04      0.94    0.74    0.69
  WS02004409WS02004410 CONDUIT    545.08     0  05:04      0.98    0.70    0.68
  WS02004407WS02004409 CONDUIT    546.06     0  05:03      1.49    0.19    0.48
  WS02004406WS02004407 CONDUIT    546.28     0  05:03      1.05    0.24    0.63
  WS02004405WS02004406 CONDUIT    546.63     0  05:03      0.96    1.08    0.96
  WS02004404WS02004405 CONDUIT    546.52     0  05:03      1.13    5.35    0.97
  WS02004403WS02004404 CONDUIT    546.40     0  05:03      0.97    0.39    0.93
  WS02004402WS02004403 CONDUIT    546.59     0  05:03      0.99    0.79    0.89
  WS02004139WS02001211 CONDUIT    382.13     0  04:02      0.90    0.48    0.59
  WS02004138WS02004139 CONDUIT    394.13     0  00:00      3.62    0.08    0.44
  WS02003067WS02003066 CONDUIT    543.61     0  05:05      1.21    0.17    0.42
  WS02001213WS02003059 CONDUIT    397.20     0  04:01      0.89    0.66    0.76
  WS02001212WS02001213 CONDUIT    393.71     0  04:01      1.32    0.61    0.46
  WS02001211WS02001212 CONDUIT    391.59     0  04:01      0.78    0.30    0.64
  WS02003072WS02003073 CONDUIT    908.83     0  05:04      1.71    1.96    0.48
  WS02003069WS02003072 CONDUIT    908.97     0  05:03      1.61    0.44    0.50
  WS02003060WS02003069 CONDUIT    909.14     0  05:03      1.85    0.36    0.45
  WS02003059WS02003060 CONDUIT    402.03     0  04:00      0.95    0.26    0.65
  HS02004901HS02004770 CONDUIT     14.11     0  02:10      0.06    0.05    0.36
  HS02004876HS02004881 CONDUIT     49.74     0  02:12      0.73    0.53    0.10
  HS02004870HS02004876 CONDUIT     39.63     0  02:13      0.51    0.03    0.11
  HS02004842HS02004848 CONDUIT      7.14     0  02:23      0.04    0.00    0.29
  HS02004837HS02004842 CONDUIT      7.41     0  02:23      0.42    0.00    0.30
  HS02004830HS02004837 CONDUIT     30.34     0  02:12      0.49    0.03    0.09
  HS02004824HS02004830 CONDUIT     30.48     0  02:13      0.53    0.04    0.08
  HS02004817HS02004824 CONDUIT     51.84     0  02:15      0.17    0.02    0.43
  HS02004770HS02004777 CONDUIT     72.29     0  02:09      0.28    0.13    0.37
  HS02004799HS02004480 CONDUIT    179.14     0  02:10      0.70    0.23    0.37
  HS02004792HS02004799 CONDUIT    163.55     0  02:10      0.79    0.10    0.29
  HS02004788HS02004792 CONDUIT     95.05     0  02:11      0.93    0.06    0.15
  HS02004785HS02004788 CONDUIT     71.92     0  02:11      0.60    0.54    0.17
  HS02004777HS02004785 CONDUIT     71.85     0  02:10      0.34    0.09    0.31
  HS02004480HS02004478 CONDUIT    211.78     0  02:11      1.09    0.89    0.28
  HS02004479HS02004480 CONDUIT     33.35     0  02:13      0.17    0.03    0.36
  HS02004862HS02004870 CONDUIT     29.29     0  02:13      0.54    0.03    0.08
  HS02004848HS02004852 CONDUIT     12.42     0  02:12      0.37    0.01    0.05
  HS02004856HS02004862 CONDUIT     20.08     0  02:13      0.40    0.02    0.07
  HS02004852HS02004856 CONDUIT     12.38     0  02:14      0.17    0.01    0.10
  HS02004802HS02004478 CONDUIT     72.41     0  02:16      0.36    0.06    0.30
  HS02004478WS02006287 CONDUIT    282.05     0  02:12      1.50    0.08    0.21
  HS02004817HS02004807 CONDUIT     53.19     0  02:17      0.14    0.03    0.56
  HS02004807HS02004802 CONDUIT     71.85     0  02:15      0.30    0.14    0.34
  YS02001759YS02001757 CONDUIT    320.06     0  02:49      0.41    0.23    1.00
  YS02001762YS02001759 CONDUIT    181.30     0  02:49      0.23    0.21    1.00
  YS02001765YS02001762 CONDUIT    178.17     0  02:49      0.25    0.17    1.00
  YS02001770YS02001767 CONDUIT    171.84     0  02:49      0.29    0.68    1.00
  YS02001774YS02001770 CONDUIT     50.08     0  02:10      0.14    0.03    1.00
  YS02001779YS02001774 CONDUIT     41.09     0  02:52      0.07    0.02    1.00
  YS02001649YS02001757 CONDUIT    479.12     0  02:57      0.61    0.29    1.00
  YS02001767YS02001765 CONDUIT    174.61     0  02:49      0.27    0.22    1.00
  YS02006561YS02001783 CONDUIT    479.38     0  02:49      1.97    0.25    0.61
  YS02001783YS02001784 CONDUIT    490.72     0  02:37      1.42    0.68    0.90
  YS02001784YS02001785 CONDUIT    507.86     0  02:37      1.55    1.18    0.94
  YS02001788YS02001790 CONDUIT    599.97     0  02:36      2.08    0.44    0.98
  YS02001790YS02001791 CONDUIT    640.14     0  02:36      2.46    0.70    1.00
  YS02001791YS02001793 CONDUIT    665.27     0  02:37      5.00    0.29    1.00
  YS02001910YS02001907 CONDUIT    154.94     0  02:57      0.49    0.09    0.85
  YS02001786YS02001788 CONDUIT    552.39     0  02:36      2.02    1.06    0.93
  YS02001915YS02001910 CONDUIT    152.62     0  03:01      0.45    0.08    0.64
  YS02001918YS02001915 CONDUIT     55.42     0  03:02      0.44    0.03    0.36
  YS02001923YS02001920 CONDUIT     47.77     0  03:01      0.53    0.02    0.18
  YS02001926YS02001923 CONDUIT     47.73     0  03:01      0.58    0.07    0.16
  YS02001929YS02001926 CONDUIT     47.73     0  03:01      0.62    0.02    0.15
  YS02001920YS02001918 CONDUIT     52.16     0  03:02      0.53    0.05    0.23
  YS02001629YS02163301 CONDUIT    112.93     0  03:00      0.14    0.14    1.00
  YS02001619YS02001622 CONDUIT    144.10     0  02:55      0.69    0.21    1.00
  YS02001622YS02001625 CONDUIT    198.71     0  02:53      0.29    0.11    1.00
  YS02001625YS02001629 CONDUIT    198.01     0  02:53      0.28    0.09    1.00
  YS02163301YS02001633 CONDUIT    112.43     0  02:50      0.14    0.11    1.00
  YS02163601YS02164001 CONDUIT    218.53     0  02:50      0.28    0.19    1.00
  YS02164001YS02001641 CONDUIT    217.68     0  02:50      0.28    0.30    1.00
  YS02001641YS02001644 CONDUIT    216.76     0  02:50      0.28    0.70    1.00
  YS02001647YS02001649 CONDUIT    320.92     0  02:51      0.41    0.17    1.00
  YS02006553YS02006556 CONDUIT    330.55     0  02:49      0.43    0.28    0.93
  YS02006556YS02006558 CONDUIT    334.72     0  02:49      0.43    0.26    0.96
  YSB6556YSB1171       CONDUIT     18.26     0  02:13      0.07    0.02    0.63
  YS02001907YS02006553 CONDUIT    330.31     0  02:49      0.37    0.39    1.00
  YS02006558YS02006561 CONDUIT    517.44     0  02:49      2.77    1.14    0.63
  YS02001633YS02163601 CONDUIT    218.17     0  02:50      0.28    0.23    1.00
  YS02001644YS02001647 CONDUIT    321.88     0  02:50      0.41    0.19    1.00
  YS02001745YS02001748 CONDUIT    251.44     0  02:51      1.53    0.10    0.93
  YS02001748YS02001751 CONDUIT    361.73     0  02:49      1.17    0.18    1.00
  YS02001751YS02001754 CONDUIT    186.92     0  02:55      0.91    0.09    1.00
  YS02001754YS02001757 CONDUIT    189.86     0  02:53      0.33    0.08    1.00
  YS02001882YS02001884 CONDUIT      4.88     0  02:03      0.07    0.01    0.58
  YS02001884YS02001887 CONDUIT     13.92     0  02:04      0.05    0.02    0.67
  YS02001890YS02001895 CONDUIT    180.90     0  02:34      0.35    0.08    0.64
  YS02001895YS02001898 CONDUIT    180.36     0  02:34      0.47    0.31    0.51
  YS02001898YS02001901 CONDUIT    180.00     0  02:34      0.38    0.12    0.59
  YS02001901YS02001904 CONDUIT    179.43     0  02:39      0.35    0.28    0.64
  YS02001904YS02001907 CONDUIT    179.62     0  02:38      0.27    0.06    0.80
  YS02001887YS02001890 CONDUIT    181.58     0  02:33      0.30    0.31    0.73
  YS02001652YS02001649 CONDUIT    182.85     0  02:57      0.38    0.09    1.00
  YS02001655YS02001652 CONDUIT    181.06     0  02:57      0.95    0.09    1.00
  YS02001658YS02001655 CONDUIT    360.17     0  02:55      1.35    0.15    1.00
  YS02001661YS02001658 CONDUIT    356.28     0  02:57      1.60    0.14    1.00
  YS02001664YS02001661 CONDUIT    419.40     0  03:47      1.34    0.13    0.70
  YSB1154YSB6556       CONDUIT     17.93     0  02:12      0.19    0.03    0.52
  YSB1174YSB1171       CONDUIT     15.69     0  02:07      0.06    0.02    0.63
  YSB1171HS02004479    CONDUIT     33.08     0  02:12      0.54    0.02    0.49
  HS02004881HS02006253 CONDUIT     55.46     0  02:12      1.91    0.01    0.50
  YS02001793JiankangQianchi CONDUIT    733.28     0  02:40     15.14    0.06    1.00
  YS02001757CaochengTiaoxuchi CONDUIT    837.88     0  02:50      1.56    0.37    1.00
  WSF200WS02003060     CONDUIT    542.95     0  05:06      1.90    0.12    0.34
  1                    CONDUIT    910.53     0  05:05      3.24    0.32    0.39
  CC-Pump-1            PUMP       200.00     0  04:00              1.00
  CC-Pump-2            PUMP       200.00     0  04:00              1.00
  JK-Pump-1            PUMP       300.00     0  02:30              1.00
  JK-Pump-2            PUMP       683.00     0  02:40              1.00
  XR-Pump-1            PUMP        95.00     0  00:00              1.00
  XR-Pump-2            PUMP        95.00     0  00:00              1.00
  XR-Pump-3            PUMP        95.00     0  00:00              1.00
  XR-Pump-4            PUMP        95.00     0  00:00              1.00
  
  
  ***************************
  Flow Classification Summary
  ***************************
  
  -------------------------------------------------------------------------------------
                      Adjusted    ---------- Fraction of Time in Flow Class ---------- 
                       /Actual         Up    Down  Sub   Sup   Up    Down  Norm  Inlet 
  Conduit               Length    Dry  Dry   Dry   Crit  Crit  Crit  Crit  Ltd   Ctrl  
  -------------------------------------------------------------------------------------
  WS02003066WSF200        1.00   0.01  0.03  0.00  0.00  0.96  0.00  0.00  0.83  0.00
  WS02006287WS02006284    1.00   0.04  0.02  0.00  0.74  0.20  0.00  0.00  0.76  0.00
  WS02006284WS02006280    1.00   0.05  0.00  0.00  0.00  0.00  0.00  0.95  0.00  0.00
  WS02006280WS02006229    1.00   0.05  0.00  0.00  0.00  0.00  0.00  0.95  0.00  0.00
  WS02006229WS02006228    1.00   0.00  0.00  0.00  1.00  0.00  0.00  0.00  0.00  0.00
  WS02006256WS02006235    1.00   0.01  0.00  0.00  0.99  0.00  0.00  0.00  0.00  0.00
  WS02006253WS02006251    1.00   0.02  0.02  0.00  0.95  0.00  0.01  0.00  0.00  0.00
  WS02006252WS02006251    1.00   0.23  0.00  0.00  0.02  0.00  0.76  0.00  0.00  0.00
  WS02006251WS02006249    1.00   0.00  0.00  0.00  1.00  0.00  0.00  0.00  0.43  0.00
  WS02006249WS02006248    1.00   0.00  0.01  0.00  0.82  0.00  0.17  0.00  0.00  0.00
  WS02006248WS02006247    1.00   0.01  0.00  0.00  0.98  0.00  0.00  0.01  0.29  0.00
  WS02006247WS02006245    1.00   0.01  0.00  0.00  0.97  0.00  0.00  0.02  0.00  0.00
  WS02006245WS02006243    1.00   0.01  0.00  0.00  0.92  0.00  0.00  0.07  0.02  0.00
  WS02006243WS02006242    1.00   0.01  0.00  0.00  0.99  0.00  0.00  0.00  0.34  0.00
  WS02006242WS02006240    1.00   0.01  0.00  0.00  0.99  0.00  0.00  0.00  0.00  0.00
  WS02006240WS02006239    1.00   0.01  0.00  0.00  0.92  0.00  0.00  0.07  0.01  0.00
  WS02006239WS02006238    1.00   0.01  0.00  0.00  0.99  0.00  0.00  0.00  0.15  0.00
  WS02006238WS02006235    1.00   0.01  0.00  0.00  0.99  0.00  0.00  0.00  0.00  0.00
  WS02006235WS02006234    1.00   0.01  0.00  0.00  0.94  0.00  0.06  0.00  0.00  0.00
  WS02006234WS02006232    1.00   0.01  0.00  0.00  0.99  0.00  0.00  0.00  0.11  0.00
  WS02006232WS02006231    1.00   0.01  0.00  0.00  0.99  0.00  0.00  0.00  0.00  0.00
  WS02006231WS02006230    1.00   0.01  0.00  0.00  0.50  0.00  0.49  0.00  0.00  0.00
  WS02006230WS02006229    1.00   0.00  0.00  0.00  0.99  0.00  0.00  0.01  0.00  0.00
  WS02006228WS02006109    1.00   0.00  0.00  0.00  1.00  0.00  0.00  0.00  0.01  0.00
  WS02006116WS02004401    1.00   0.02  0.00  0.00  0.98  0.00  0.00  0.00  0.00  0.00
  WS02006115WS02006116    1.00   0.02  0.00  0.00  0.98  0.00  0.00  0.00  0.00  0.00
  WS02006113WS02006111    1.00   0.01  0.00  0.00  0.00  0.99  0.00  0.00  0.24  0.00
  WS02006112WS02006115    1.00   0.01  0.00  0.00  0.98  0.00  0.00  0.00  0.00  0.00
  WS02006111WS02006112    1.00   0.01  0.00  0.00  0.98  0.00  0.00  0.00  0.95  0.00
  WS02006110WS02006113    1.00   0.00  0.01  0.00  0.99  0.00  0.00  0.00  0.00  0.00
  WS02006109WS02006110    1.00   0.00  0.00  0.00  0.99  0.00  0.00  0.00  0.00  0.00
  WS02004411WS02004412    1.00   0.03  0.00  0.00  0.97  0.00  0.00  0.00  0.00  0.00
  WS02004401WS02004402    1.00   0.02  0.00  0.00  0.98  0.00  0.00  0.00  0.00  0.00
  WS02004413WS02003067    1.00   0.03  0.00  0.00  0.00  0.00  0.97  0.00  0.00  0.00
  WS02004412WS02004413    1.00   0.03  0.00  0.00  0.97  0.00  0.00  0.00  0.00  0.00
  WS02004410WS02004411    1.00   0.03  0.00  0.00  0.97  0.00  0.00  0.00  0.00  0.00
  WS02004409WS02004410    1.00   0.03  0.00  0.00  0.97  0.00  0.00  0.00  0.00  0.00
  WS02004407WS02004409    1.00   0.03  0.00  0.00  0.97  0.00  0.00  0.00  0.93  0.00
  WS02004406WS02004407    1.00   0.00  0.03  0.00  0.97  0.00  0.00  0.00  0.00  0.00
  WS02004405WS02004406    1.00   0.00  0.00  0.00  1.00  0.00  0.00  0.00  0.02  0.00
  WS02004404WS02004405    1.00   0.00  0.00  0.00  1.00  0.00  0.00  0.00  0.00  0.00
  WS02004403WS02004404    1.00   0.00  0.02  0.00  0.98  0.00  0.00  0.00  0.00  0.00
  WS02004402WS02004403    1.00   0.02  0.00  0.00  0.98  0.00  0.00  0.00  0.00  0.00
  WS02004139WS02001211    1.00   0.00  0.00  0.00  1.00  0.00  0.00  0.00  0.00  0.00
  WS02004138WS02004139    1.00   0.00  0.00  0.00  1.00  0.00  0.00  0.00  1.00  0.00
  WS02003067WS02003066    1.00   0.03  0.00  0.00  0.96  0.00  0.00  0.00  0.00  0.00
  WS02001213WS02003059    1.00   0.00  0.00  0.00  1.00  0.00  0.00  0.00  0.00  0.00
  WS02001212WS02001213    1.00   0.00  0.00  0.00  0.88  0.00  0.12  0.00  0.00  0.00
  WS02001211WS02001212    1.00   0.00  0.00  0.00  1.00  0.00  0.00  0.00  0.00  0.00
  WS02003072WS02003073    1.00   0.00  0.00  0.00  0.00  0.00  0.00  1.00  0.00  0.00
  WS02003069WS02003072    1.00   0.00  0.00  0.00  1.00  0.00  0.00  0.00  0.18  0.00
  WS02003060WS02003069    1.00   0.00  0.00  0.00  0.99  0.01  0.00  0.00  0.15  0.00
  WS02003059WS02003060    1.00   0.00  0.00  0.00  1.00  0.00  0.00  0.00  0.00  0.00
  HS02004901HS02004770    1.00   0.05  0.00  0.00  0.95  0.00  0.00  0.00  0.01  0.00
  HS02004876HS02004881    1.00   0.01  0.00  0.00  0.99  0.00  0.00  0.00  0.00  0.00
  HS02004870HS02004876    1.00   0.00  0.00  0.00  1.00  0.00  0.00  0.00  0.95  0.00
  HS02004842HS02004848    1.00   0.00  0.05  0.00  0.95  0.00  0.00  0.00  0.65  0.00
  HS02004837HS02004842    1.00   0.00  0.00  0.00  1.00  0.00  0.00  0.00  0.11  0.00
  HS02004830HS02004837    1.00   0.00  0.00  0.00  1.00  0.00  0.00  0.00  0.99  0.00
  HS02004824HS02004830    1.00   0.00  0.00  0.00  1.00  0.00  0.00  0.00  0.00  0.00
  HS02004817HS02004824    1.00   0.00  0.00  0.00  1.00  0.00  0.00  0.00  1.00  0.00
  HS02004770HS02004777    1.00   0.00  0.05  0.00  0.95  0.00  0.00  0.00  0.05  0.00
  HS02004799HS02004480    1.00   0.00  0.01  0.00  0.94  0.00  0.05  0.00  0.00  0.00
  HS02004792HS02004799    1.00   0.00  0.00  0.00  1.00  0.00  0.00  0.00  0.98  0.00
  HS02004788HS02004792    1.00   0.00  0.00  0.00  1.00  0.00  0.00  0.00  0.98  0.00
  HS02004785HS02004788    1.00   0.00  0.00  0.00  1.00  0.00  0.00  0.00  0.00  0.00
  HS02004777HS02004785    1.00   0.00  0.00  0.00  1.00  0.00  0.00  0.00  0.17  0.00
  HS02004480HS02004478    1.00   0.05  0.00  0.00  0.79  0.00  0.00  0.16  0.00  0.00
  HS02004479HS02004480    1.00   0.01  0.00  0.00  0.99  0.00  0.00  0.00  0.15  0.00
  HS02004862HS02004870    1.00   0.00  0.00  0.00  1.00  0.00  0.00  0.00  0.05  0.00
  HS02004848HS02004852    1.00   0.05  0.00  0.00  0.95  0.00  0.00  0.00  0.72  0.00
  HS02004856HS02004862    1.00   0.00  0.07  0.00  0.93  0.00  0.00  0.00  0.77  0.00
  HS02004852HS02004856    1.00   0.05  0.01  0.00  0.95  0.00  0.00  0.00  0.84  0.00
  HS02004802HS02004478    1.00   0.05  0.01  0.00  0.95  0.00  0.00  0.00  0.01  0.00
  HS02004478WS02006287    1.00   0.06  0.00  0.00  0.87  0.07  0.00  0.00  0.74  0.00
  HS02004817HS02004807    1.00   0.00  0.05  0.00  0.95  0.00  0.00  0.00  0.00  0.00
  HS02004807HS02004802    1.00   0.05  0.00  0.00  0.95  0.00  0.00  0.00  0.01  0.00
  YS02001759YS02001757    1.00   0.00  0.00  0.00  1.00  0.00  0.00  0.00  0.18  0.00
  YS02001762YS02001759    1.00   0.00  0.00  0.00  1.00  0.00  0.00  0.00  0.04  0.00
  YS02001765YS02001762    1.00   0.00  0.00  0.00  1.00  0.00  0.00  0.00  0.20  0.00
  YS02001770YS02001767    1.00   0.00  0.00  0.00  1.00  0.00  0.00  0.00  0.00  0.00
  YS02001774YS02001770    1.00   0.00  0.05  0.00  0.95  0.00  0.00  0.00  0.05  0.00
  YS02001779YS02001774    1.00   0.00  0.00  0.00  1.00  0.00  0.00  0.00  0.24  0.00
  YS02001649YS02001757    1.00   0.00  0.00  0.00  1.00  0.00  0.00  0.00  0.18  0.00
  YS02001767YS02001765    1.00   0.00  0.00  0.00  1.00  0.00  0.00  0.00  0.01  0.00
  YS02006561YS02001783    1.00   0.08  0.00  0.00  0.06  0.86  0.00  0.00  0.65  0.00
  YS02001783YS02001784    1.00   0.00  0.08  0.00  0.92  0.00  0.00  0.00  0.01  0.00
  YS02001784YS02001785    1.00   0.00  0.00  0.00  1.00  0.00  0.00  0.00  0.23  0.00
  YS02001788YS02001790    1.00   0.00  0.00  0.00  0.20  0.80  0.00  0.00  0.65  0.00
  YS02001790YS02001791    1.00   0.00  0.00  0.00  0.14  0.86  0.00  0.00  0.51  0.00
  YS02001791YS02001793    1.00   0.00  0.00  0.00  0.18  0.82  0.00  0.00  0.04  0.00
  YS02001910YS02001907    1.00   0.00  0.00  0.00  0.99  0.00  0.00  0.01  0.13  0.00
  YS02001786YS02001788    1.00   0.00  0.00  0.00  0.18  0.82  0.00  0.00  0.00  0.00
  YS02001915YS02001910    1.00   0.00  0.00  0.00  1.00  0.00  0.00  0.00  0.21  0.00
  YS02001918YS02001915    1.00   0.00  0.00  0.00  0.99  0.00  0.00  0.00  0.69  0.00
  YS02001923YS02001920    1.00   0.00  0.00  0.00  1.00  0.00  0.00  0.00  1.00  0.00
  YS02001926YS02001923    1.00   0.00  0.03  0.00  0.00  0.00  0.97  0.00  0.00  0.00
  YS02001929YS02001926    1.00   0.00  0.05  0.00  0.95  0.00  0.00  0.00  0.87  0.00
  YS02001920YS02001918    1.00   0.00  0.00  0.00  1.00  0.00  0.00  0.00  0.00  0.00
  YS02001629YS02163301    1.00   0.07  0.01  0.00  0.93  0.00  0.00  0.00  0.00  0.00
  YS02001619YS02001622    1.00   0.05  0.00  0.00  0.95  0.00  0.00  0.00  0.00  0.00
  YS02001622YS02001625    1.00   0.05  0.00  0.00  0.95  0.00  0.00  0.00  0.10  0.00
  YS02001625YS02001629    1.00   0.05  0.04  0.00  0.90  0.00  0.02  0.00  0.00  0.00
  YS02163301YS02001633    1.00   0.00  0.07  0.00  0.93  0.00  0.00  0.00  0.00  0.00
  YS02163601YS02164001    1.00   0.00  0.03  0.00  0.97  0.00  0.00  0.00  0.00  0.00
  YS02164001YS02001641    1.00   0.00  0.03  0.00  0.97  0.00  0.00  0.00  0.07  0.00
  YS02001641YS02001644    1.00   0.00  0.00  0.00  1.00  0.00  0.00  0.00  0.00  0.00
  YS02001647YS02001649    1.00   0.00  0.08  0.00  0.92  0.00  0.00  0.00  0.01  0.00
  YS02006553YS02006556    1.00   0.00  0.00  0.00  1.00  0.00  0.00  0.00  0.03  0.00
  YS02006556YS02006558    1.00   0.00  0.00  0.00  1.00  0.00  0.00  0.00  0.00  0.00
  YSB6556YSB1171          1.00   0.01  0.03  0.00  0.96  0.00  0.00  0.00  0.00  0.00
  YS02001907YS02006553    1.00   0.00  0.01  0.00  0.99  0.00  0.00  0.00  0.00  0.00
  YS02006558YS02006561    1.00   0.08  0.00  0.00  0.00  0.92  0.00  0.00  0.67  0.00
  YS02001633YS02163601    1.00   0.00  0.00  0.00  1.00  0.00  0.00  0.00  0.18  0.00
  YS02001644YS02001647    1.00   0.00  0.08  0.00  0.92  0.00  0.00  0.00  0.00  0.00
  YS02001745YS02001748    1.00   0.00  0.00  0.00  0.88  0.01  0.00  0.12  0.06  0.00
  YS02001748YS02001751    1.00   0.00  0.00  0.00  0.96  0.04  0.00  0.00  0.17  0.00
  YS02001751YS02001754    1.00   0.00  0.00  0.00  0.91  0.00  0.00  0.09  0.02  0.00
  YS02001754YS02001757    1.00   0.00  0.00  0.00  1.00  0.00  0.00  0.00  0.24  0.00
  YS02001882YS02001884    1.00   0.06  0.00  0.00  0.93  0.00  0.00  0.00  0.00  0.00
  YS02001884YS02001887    1.00   0.02  0.02  0.00  0.96  0.00  0.00  0.00  0.00  0.00
  YS02001890YS02001895    1.00   0.00  0.07  0.00  0.93  0.00  0.00  0.00  0.00  0.00
  YS02001895YS02001898    1.00   0.07  0.00  0.00  0.92  0.00  0.01  0.00  0.00  0.00
  YS02001898YS02001901    1.00   0.07  0.00  0.00  0.93  0.00  0.00  0.00  0.02  0.00
  YS02001901YS02001904    1.00   0.07  0.00  0.00  0.93  0.00  0.00  0.00  0.00  0.00
  YS02001904YS02001907    1.00   0.00  0.07  0.00  0.93  0.00  0.00  0.00  0.00  0.00
  YS02001887YS02001890    1.00   0.00  0.00  0.00  0.99  0.00  0.01  0.00  0.00  0.00
  YS02001652YS02001649    1.00   0.00  0.00  0.00  1.00  0.00  0.00  0.00  0.22  0.00
  YS02001655YS02001652    1.00   0.00  0.00  0.00  0.91  0.00  0.00  0.09  0.02  0.00
  YS02001658YS02001655    1.00   0.00  0.06  0.00  0.90  0.04  0.00  0.00  0.08  0.00
  YS02001661YS02001658    1.00   0.06  0.00  0.00  0.88  0.06  0.00  0.00  0.06  0.00
  YS02001664YS02001661    1.00   0.05  0.00  0.00  0.89  0.07  0.00  0.00  0.29  0.00
  YSB1154YSB6556          1.00   0.04  0.00  0.00  0.96  0.00  0.00  0.00  0.02  0.00
  YSB1174YSB1171          1.00   0.02  0.02  0.00  0.97  0.00  0.00  0.00  0.00  0.00
  YSB1171HS02004479       1.00   0.01  0.00  0.00  0.98  0.00  0.00  0.01  0.13  0.00
  HS02004881HS02006253    1.00   0.02  0.00  0.00  0.56  0.01  0.00  0.41  0.32  0.00
  YS02001793JiankangQianchi    1.00   0.00  0.00  0.00  0.64  0.36  0.00  0.00  0.56  0.00
  YS02001757CaochengTiaoxuchi    1.00   0.00  0.10  0.00  0.90  0.00  0.00  0.00  0.00  0.00
  WSF200WS02003060        1.00   0.00  0.01  0.00  0.86  0.13  0.00  0.00  0.63  0.00
  1                       1.00   0.00  0.00  0.00  0.00  1.00  0.00  0.00  0.48  0.00
  
  
  *************************
  Conduit Surcharge Summary
  *************************
  
  ----------------------------------------------------------------------------
                                                           Hours        Hours 
                         --------- Hours Full --------   Above Full   Capacity
  Conduit                Both Ends  Upstream  Dnstream   Normal Flow   Limited
  ----------------------------------------------------------------------------
  WS02006229WS02006228        1.45      1.64      1.45      3.31         1.45
  WS02006256WS02006235        5.00      5.00      6.51      3.06         0.01
  WS02006253WS02006251        0.57      0.57      0.67      0.01         0.02
  WS02006252WS02006251        0.84      0.84      1.39      1.24         0.01
  WS02006251WS02006249        0.59      0.61      0.63      0.74         0.38
  WS02006249WS02006248        0.53      0.53      0.63      2.00         0.01
  WS02006248WS02006247        0.60      0.60      0.73      0.01         0.01
  WS02006247WS02006245        0.67      0.76      0.67      2.51         0.66
  WS02006245WS02006243        0.69      0.71      0.73      0.56         0.29
  WS02006243WS02006242        0.77      0.77      1.04      0.01         0.01
  WS02006242WS02006240        0.78      0.78      1.19      1.30         0.01
  WS02006240WS02006239        0.77      0.82      0.81      0.82         0.29
  WS02006239WS02006238        0.96      1.05      1.04      0.85         0.41
  WS02006238WS02006235        0.96      0.96      1.25      0.01         0.01
  WS02006235WS02006234        0.64      0.64      0.88      4.85         0.01
  WS02006234WS02006232        0.72      0.72      1.29      0.20         0.23
  WS02006232WS02006231        0.33      0.33      1.29      0.28         0.01
  WS02006231WS02006230        0.18      0.18      0.37      5.19         0.01
  WS02006230WS02006229        2.21      2.66      2.21      5.77         2.21
  WS02006228WS02006109        1.55      1.95      1.55      4.02         1.55
  WS02006112WS02006115        0.01      0.01      0.29      0.01         0.01
  WS02006111WS02006112        0.01      0.01      3.50      0.01         0.01
  WS02006110WS02006113        0.01      0.01      1.82      0.01         0.01
  WS02006109WS02006110        0.24      0.24      1.95      0.25         0.01
  WS02004405WS02004406        0.01      0.01      0.01      0.19         0.01
  WS02004404WS02004405        0.01      0.01      0.01      5.61         0.01
  WS02003072WS02003073        0.01      0.01      0.01      5.26         0.01
  YS02001759YS02001757        5.52      5.52      5.58      0.01         0.01
  YS02001762YS02001759        5.50      5.50      5.52      0.01         0.01
  YS02001765YS02001762        5.47      5.47      5.50      0.01         0.01
  YS02001770YS02001767        5.44      5.44      5.45      0.01         0.60
  YS02001774YS02001770        5.43      5.43      5.48      0.01         0.01
  YS02001779YS02001774        5.04      5.04      5.48      0.01         0.01
  YS02001649YS02001757        5.50      5.50      5.58      0.01         0.01
  YS02001767YS02001765        5.45      5.45      5.47      0.01         0.01
  YS02001784YS02001785        0.01      0.01      0.01      0.74         0.01
  YS02001788YS02001790        0.01      0.01      0.64      0.01         0.01
  YS02001790YS02001791        0.64      0.64      0.79      0.01         0.01
  YS02001791YS02001793        0.79      0.79      1.28      0.01         0.01
  YS02001786YS02001788        0.01      0.01      0.01      0.04         0.01
  YS02001629YS02163301        5.42      5.42      5.44      0.01         0.01
  YS02001619YS02001622        4.70      4.70      4.74      0.01         0.01
  YS02001622YS02001625        4.73      4.73      5.37      0.01         0.01
  YS02001625YS02001629        4.71      4.71      5.37      0.01         0.01
  YS02163301YS02001633        5.44      5.44      5.48      0.01         0.01
  YS02163601YS02164001        5.47      5.47      5.50      0.01         0.01
  YS02164001YS02001641        5.47      5.47      5.48      0.01         0.01
  YS02001641YS02001644        5.48      5.48      5.48      0.01         0.72
  YS02001647YS02001649        5.32      5.32      5.50      0.01         0.01
  YS02001907YS02006553        0.81      0.81      1.04      0.01         0.01
  YS02006558YS02006561        0.01      0.01      0.01      0.45         0.01
  YS02001633YS02163601        5.46      5.46      5.50      0.01         0.01
  YS02001644YS02001647        5.32      5.32      5.48      0.01         0.01
  YS02001745YS02001748        0.01      0.01      4.38      0.01         0.01
  YS02001748YS02001751        4.49      4.49      4.75      0.01         0.01
  YS02001751YS02001754        4.75      4.75      5.15      0.01         0.01
  YS02001754YS02001757        5.30      5.30      5.58      0.01         0.01
  YS02001652YS02001649        5.34      5.34      5.50      0.01         0.01
  YS02001655YS02001652        4.80      4.80      5.28      0.01         0.01
  YS02001658YS02001655        4.40      4.40      4.80      0.01         0.01
  YS02001661YS02001658        0.01      0.01      4.40      0.01         0.01
  YS02001664YS02001661        0.01      0.01      0.14      0.01         0.01
  HS02004881HS02006253        0.01      0.01      0.17      0.01         0.01
  YS02001793JiankangQianchi        1.16      1.16      3.83      0.01         0.01
  YS02001757CaochengTiaoxuchi        4.51      4.51      5.58      0.01         0.01
  
  
  ***************
  Pumping Summary
  ***************
  
  ---------------------------------------------------------------------------------------------------------
                                                  Min       Avg       Max     Total     Power    % Time Off
                        Percent   Number of      Flow      Flow      Flow    Volume     Usage    Pump Curve
  Pump                 Utilized   Start-Ups       LPS       LPS       LPS  10^6 ltr     Kw-hr    Low   High
  ---------------------------------------------------------------------------------------------------------
  CC-Pump-1               42.55           4      0.00    133.93    200.00     1.560      1.66    0.0    0.0
  CC-Pump-2               31.91           3      0.00    114.15    200.00     1.080      1.32    0.0    0.0
  JK-Pump-1               42.56           5      0.00    169.52    300.00     2.076     36.04    0.0    0.0
  JK-Pump-2               36.17           4      0.00    259.74    683.00     2.934     50.15    0.0   96.4
  XR-Pump-1               95.75           3      0.00     90.00     95.00     2.451     49.80    0.0    0.0
  XR-Pump-2               91.51           4      0.00     82.79     95.00     2.138     43.01    0.0    0.0
  XR-Pump-3               89.38           5      0.00     82.07     95.00     2.024     40.46    0.0    0.0
  XR-Pump-4               89.38           5      0.00     82.07     95.00     2.024     40.46    0.0    0.0
  
  
  ***************************
  Link Pollutant Load Summary
  ***************************
  
  ------------------------------------------------------------------------------------------
                                 COD            SS            TN            TP         NH4-N
  Link                            kg            kg            kg            kg            kg
  ------------------------------------------------------------------------------------------
  WS02003066WSF200           415.320       721.139        13.870         1.342         7.660
  WS02006287WS02006284       138.118       243.274         6.855         0.766         4.033
  WS02006284WS02006280       138.541       243.957         6.894         0.771         4.057
  WS02006280WS02006229       138.526       243.928         6.894         0.771         4.057
  WS02006229WS02006228       417.655       724.930        13.561         1.294         7.445
  WS02006256WS02006235        86.052       147.518         2.336         0.202         1.239
  WS02006253WS02006251        26.467        48.251         0.684         0.056         0.353
  WS02006252WS02006251       178.427       305.329         3.957         0.290         1.956
  WS02006251WS02006249       197.064       340.230         4.468         0.334         2.224
  WS02006249WS02006248       194.161       335.225         4.402         0.329         2.191
  WS02006248WS02006247       194.408       335.664         4.411         0.330         2.196
  WS02006247WS02006245       194.516       335.854         4.411         0.329         2.195
  WS02006245WS02006243       194.546       335.961         4.407         0.329         2.193
  WS02006243WS02006242       196.130       338.722         4.445         0.332         2.212
  WS02006242WS02006240       198.893       343.448         4.514         0.337         2.248
  WS02006240WS02006239       201.806       348.410         4.586         0.343         2.285
  WS02006239WS02006238       205.546       354.724         4.692         0.353         2.342
  WS02006238WS02006235       207.400       357.690         4.746         0.357         2.371
  WS02006235WS02006234       280.428       483.133         6.733         0.530         3.427
  WS02006234WS02006232       280.434       483.138         6.738         0.531         3.430
  WS02006232WS02006231       280.070       482.519         6.724         0.530         3.422
  WS02006231WS02006230       279.773       482.023         6.716         0.529         3.418
  WS02006230WS02006229       280.281       482.965         6.733         0.531         3.428
  WS02006228WS02006109       416.930       723.757        13.513         1.288         7.416
  WS02006116WS02004401       424.158       735.942        14.137         1.366         7.804
  WS02006115WS02006116       425.051       737.423        14.171         1.370         7.823
  WS02006113WS02006111       423.597       734.375        14.208         1.376         7.853
  WS02006112WS02006115       425.832       738.728        14.210         1.374         7.846
  WS02006111WS02006112       423.161       733.657        14.185         1.373         7.839
  WS02006110WS02006113       423.881       734.846        14.226         1.378         7.864
  WS02006109WS02006110       424.828       736.398        14.291         1.386         7.903
  WS02004411WS02004412       417.811       725.299        13.981         1.354         7.724
  WS02004401WS02004402       423.212       734.361        14.096         1.362         7.780
  WS02004413WS02003067       415.844       722.000        13.890         1.344         7.671
  WS02004412WS02004413       416.790       723.596        13.940         1.350         7.701
  WS02004410WS02004411       418.523       726.482        14.007         1.357         7.739
  WS02004409WS02004410       419.159       727.543        14.032         1.359         7.753
  WS02004407WS02004409       419.623       728.308        14.045         1.360         7.760
  WS02004406WS02004407       419.684       728.398        14.040         1.360         7.756
  WS02004405WS02004406       420.979       730.548        14.103         1.366         7.793
  WS02004404WS02004405       421.964       732.201        14.112         1.366         7.795
  WS02004403WS02004404       421.431       731.390        14.026         1.355         7.741
  WS02004402WS02004403       422.281       732.813        14.062         1.359         7.761
  WS02004139WS02001211      1382.821      2223.121       127.383        15.821        79.312
  WS02004138WS02004139      1386.381      2228.851       127.704        15.861        79.511
  WS02003067WS02003066       415.405       721.280        13.874         1.343         7.663
  WS02001213WS02003059      1424.348      2289.510       131.402        16.324        81.825
  WS02001212WS02001213      1429.132      2297.195       131.844        16.379        82.101
  WS02001211WS02001212      1430.051      2298.665       131.931        16.390        82.155
  WS02003072WS02003073      1951.513      3189.488       156.102        19.022        96.258
  WS02003069WS02003072      1953.983      3193.484       156.319        19.049        96.393
  WS02003060WS02003069      1953.585      3192.883       156.250        19.039        96.349
  WS02003059WS02003060      1424.638      2289.965       131.437        16.329        81.847
  HS02004901HS02004770         3.972         7.335         0.076         0.006         0.035
  HS02004876HS02004881        15.357        28.747         0.408         0.034         0.211
  HS02004870HS02004876        11.729        21.841         0.347         0.030         0.183
  HS02004842HS02004848         2.151         3.859         0.047         0.003         0.021
  HS02004837HS02004842         6.768        11.205         0.515         0.062         0.315
  HS02004830HS02004837        51.956        85.645         4.296         0.527         2.660
  HS02004824HS02004830        52.706        86.847         4.368         0.536         2.705
  HS02004817HS02004824        61.232       102.780         4.571         0.551         2.807
  HS02004770HS02004777        15.263        28.438         0.325         0.021         0.148
  HS02004799HS02004480        59.596       106.310         2.278         0.235         1.276
  HS02004792HS02004799        54.883        96.998         2.238         0.236         1.266
  HS02004788HS02004792        34.483        60.682         1.701         0.187         0.989
  HS02004785HS02004788        16.761        30.847         0.478         0.041         0.244
  HS02004777HS02004785        16.217        29.966         0.429         0.035         0.214
  HS02004480HS02004478        73.052       132.040         2.461         0.245         1.355
  HS02004479HS02004480        17.717        32.517         0.589         0.061         0.332
  HS02004862HS02004870         8.743        15.939         0.288         0.027         0.155
  HS02004848HS02004852         2.772         5.035         0.060         0.004         0.027
  HS02004856HS02004862         5.230         9.843         0.107         0.007         0.050
  HS02004852HS02004856         2.768         5.027         0.059         0.004         0.027
  HS02004802HS02004478        65.378       111.746         4.421         0.524         2.694
  HS02004478WS02006287       138.300       243.575         6.870         0.768         4.042
  HS02004817HS02004807        59.867       100.597         4.442         0.535         2.726
  HS02004807HS02004802        66.012       112.756         4.483         0.532         2.733
  YS02001759YS02001757       159.968       274.528         3.512         0.247         1.744
  YS02001762YS02001759        83.975       145.211         2.027         0.148         1.028
  YS02001765YS02001762        83.370       144.078         2.038         0.150         1.037
  YS02001770YS02001767        80.938       140.116         1.739         0.111         0.847
  YS02001774YS02001770         5.487         9.425         0.138         0.010         0.071
  YS02001779YS02001774         4.312         7.225         0.209         0.023         0.123
  YS02001649YS02001757       223.584       372.469         4.829         0.351         2.336
  YS02001767YS02001765        83.353       143.987         2.051         0.152         1.045
  YS02006561YS02001783       330.671       563.262         8.507         0.707         4.445
  YS02001783YS02001784       330.589       563.139         8.504         0.706         4.443
  YS02001784YS02001785       337.956       574.943         9.217         0.796         4.889
  YS02001788YS02001790       338.722       576.190         9.300         0.806         4.941
  YS02001790YS02001791       340.049       578.348         9.424         0.822         5.018
  YS02001791YS02001793       340.124       578.475         9.425         0.822         5.019
  YS02001910YS02001907       112.826       188.605         4.012         0.374         2.225
  YS02001786YS02001788       338.188       575.325         9.246         0.799         4.907
  YS02001915YS02001910       112.737       188.419         3.965         0.367         2.194
  YS02001918YS02001915        57.316        91.881         2.735         0.299         1.606
  YS02001923YS02001920        37.325        59.911         0.791         0.056         0.390
  YS02001926YS02001923        36.963        59.329         0.752         0.051         0.365
  YS02001929YS02001926        36.700        58.897         0.721         0.047         0.345
  YS02001920YS02001918        57.253        91.802         2.709         0.296         1.589
  YS02001629YS02163301        41.817        69.701         0.923         0.058         0.427
  YS02001619YS02001622        45.061        74.742         0.999         0.062         0.461
  YS02001622YS02001625        44.094        73.284         0.974         0.061         0.450
  YS02001625YS02001629        42.975        71.624         0.947         0.059         0.438
  YS02163301YS02001633        42.173        70.331         0.928         0.059         0.431
  YS02163601YS02164001       117.450       194.370         2.516         0.178         1.212
  YS02164001YS02001641       117.080       193.773         2.496         0.176         1.201
  YS02001641YS02001644       117.846       195.042         2.503         0.176         1.203
  YS02001647YS02001649       180.075       298.211         3.711         0.261         1.781
  YS02006553YS02006556       239.568       406.675         6.500         0.563         3.456
  YS02006556YS02006558       239.510       406.561         6.469         0.559         3.435
  YSB6556YSB1171               9.437        17.480         0.246         0.023         0.133
  YS02001907YS02006553       239.569       406.696         6.498         0.563         3.455
  YS02006558YS02006561       330.635       563.188         8.505         0.707         4.443
  YS02001633YS02163601       118.103       195.346         2.499         0.174         1.198
  YS02001644YS02001647       182.081       301.320         3.744         0.263         1.795
  YS02001745YS02001748        63.064       107.400         1.366         0.082         0.658
  YS02001748YS02001751        66.859       113.619         1.741         0.129         0.893
  YS02001751YS02001754        65.139       110.575         1.778         0.137         0.925
  YS02001754YS02001757        66.059       112.028         1.948         0.160         1.035
  YS02001882YS02001884         0.795         1.284         0.021         0.002         0.011
  YS02001884YS02001887         3.001         5.040         0.071         0.006         0.037
  YS02001890YS02001895       127.921       219.803         2.515         0.192         1.245
  YS02001895YS02001898       127.779       219.599         2.509         0.191         1.241
  YS02001898YS02001901       127.654       219.420         2.506         0.191         1.240
  YS02001901YS02001904       127.677       219.492         2.524         0.193         1.252
  YS02001904YS02001907       128.335       220.586         2.609         0.204         1.305
  YS02001887YS02001890       128.773       221.118         2.577         0.199         1.283
  YS02001652YS02001649        49.007        82.934         1.229         0.098         0.604
  YS02001655YS02001652        49.794        84.185         1.251         0.100         0.615
  YS02001658YS02001655        48.293        81.805         1.027         0.070         0.471
  YS02001661YS02001658        52.272        88.554         1.106         0.075         0.506
  YS02001664YS02001661        59.564       100.114         1.272         0.086         0.581
  YSB1154YSB6556               8.947        16.699         0.186         0.016         0.095
  YSB1174YSB1171               6.427        12.057         0.166         0.015         0.089
  YSB1171HS02004479           17.630        32.387         0.580         0.060         0.327
  HS02004881HS02006253        17.307        32.538         0.441         0.035         0.226
  YS02001793JiankangQianchi       340.958       579.845         9.444         0.823         5.028
  YS02001757CaochengTiaoxuchi       420.494       712.221         9.415         0.686         4.651
  WSF200WS02003060           415.157       720.879        13.867         1.342         7.659
  1                         1963.728      3209.026       157.325        19.176        97.025
  CC-Pump-1                  104.219       178.057         2.311         0.169         1.141
  CC-Pump-2                   74.057       127.027         1.637         0.120         0.809
  JK-Pump-1                   81.657       140.209         2.231         0.194         1.186
  JK-Pump-2                  151.017       259.780         3.868         0.324         2.024
  XR-Pump-1                  409.978       658.890        37.867         4.705        23.584
  XR-Pump-2                  345.363       555.160        31.852         3.957        19.834
  XR-Pump-3                  317.286       510.237        29.156         3.620        18.149
  XR-Pump-4                  317.286       510.237        29.156         3.620        18.149
  

  Analysis begun on:  Sun Jul 11 09:35:42 2021
  Analysis ended on:  Sun Jul 11 09:35:45 2021
  Total elapsed time: 00:00:03