
  EPA STORM WATER MANAGEMENT MODEL - VERSION 5.1 (Build 5.3.0.dev0)
  --------------------------------------------------------------

  WARNING 04: minimum elevation drop used for Conduit WS02004404WS02004405
  WARNING 03: negative offset ignored for Link YS02001904YS02001907
  
  *********************************************************
  NOTE: The summary statistics displayed in this report are
  based on results found at every computational time step,  
  not just on results from each reporting time step.
  *********************************************************
  
  ****************
  Analysis Options
  ****************
  Flow Units ............... LPS
  Process Models:
    Rainfall/Runoff ........ YES
    RDII ................... NO
    Snowmelt ............... NO
    Groundwater ............ NO
    Flow Routing ........... YES
    Ponding Allowed ........ NO
    Water Quality .......... YES
  Infiltration Method ...... HORTON
  Flow Routing Method ...... DYNWAVE
  Surcharge Method ......... EXTRAN
  Starting Date ............ 08/28/2015 08:00:00
  Ending Date .............. 08/28/2015 15:50:00
  Antecedent Dry Days ...... 8.0
  Report Time Step ......... 00:01:00
  Wet Time Step ............ 00:01:00
  Dry Time Step ............ 00:01:00
  Routing Time Step ........ 5.00 sec
  Variable Time Step ....... YES
  Maximum Trials ........... 8
  Number of Threads ........ 4
  Head Tolerance ........... 0.001500 m
  
  
  **************************        Volume         Depth
  Runoff Quantity Continuity     hectare-m            mm
  **************************     ---------       -------
  Total Precipitation ......         3.517         7.699
  Evaporation Loss .........         0.000         0.000
  Infiltration Loss ........         0.700         1.533
  Surface Runoff ...........         2.169         4.750
  Final Storage ............         0.648         1.418
  Continuity Error (%) .....        -0.021
  
  
  **************************           COD            SS            TN            TP         NH4-N
  Runoff Quality Continuity             kg            kg            kg            kg            kg
  **************************    ----------    ----------    ----------    ----------    ----------
  Initial Buildup ..........     41378.656     70582.865      1804.177       168.684      1032.807
  Surface Buildup ..........        17.727        27.162         2.925         0.269         1.723
  Wet Deposition ...........         0.000         0.000         0.000         0.000         0.000
  Sweeping Removal .........         0.000         0.000         0.000         0.000         0.000
  Infiltration Loss ........        46.649        85.176         0.896         0.061         0.423
  BMP Removal ..............         0.000         0.000         0.000         0.000         0.000
  Surface Runoff ...........      1535.402      2721.270        30.328         2.006        14.337
  Remaining Buildup ........     39813.812     67802.661      1775.868       166.884      1019.764
  Continuity Error (%) .....         0.001         0.001         0.001         0.000         0.000
  
  
  **************************        Volume        Volume
  Flow Routing Continuity        hectare-m      10^6 ltr
  **************************     ---------     ---------
  Dry Weather Inflow .......         0.616         6.165
  Wet Weather Inflow .......         2.168        21.684
  Groundwater Inflow .......         0.000         0.000
  RDII Inflow ..............         0.000         0.000
  External Inflow ..........         0.102         1.024
  External Outflow .........         1.655        16.554
  Flooding Loss ............         0.883         8.833
  Evaporation Loss .........         0.000         0.000
  Exfiltration Loss ........         0.000         0.000
  Initial Stored Volume ....         0.076         0.761
  Final Stored Volume ......         0.548         5.480
  Continuity Error (%) .....        -4.167
  
  
  **************************           COD            SS            TN            TP         NH4-N
  Quality Routing Continuity            kg            kg            kg            kg            kg
  **************************    ----------    ----------    ----------    ----------    ----------
  Dry Weather Inflow .......      1541.201      2465.922       147.955        18.494        92.472
  Wet Weather Inflow .......      1534.912      2720.455        30.317         2.006        14.332
  Groundwater Inflow .......         0.000         0.000         0.000         0.000         0.000
  RDII Inflow ..............         0.000         0.000         0.000         0.000         0.000
  External Inflow ..........       183.418       293.469        17.608         2.201        11.005
  External Outflow .........      2151.345      3563.438       166.331        20.181       102.304
  Flooding Loss ............       573.366       998.916        12.610         0.943         6.276
  Exfiltration Loss ........         0.000         0.000         0.000         0.000         0.000
  Mass Reacted .............         0.000         0.000         0.000         0.000         0.000
  Initial Stored Mass ......         0.000         0.000         0.000         0.000         0.000
  Final Stored Mass ........       356.010       615.827         9.475         0.796         4.950
  Continuity Error (%) .....         5.486         5.505         3.810         3.441         3.632
  
  
  *************************
  Highest Continuity Errors
  *************************
  Node HS02004842 (20.74%)
  Node JK-storage (-17.98%)
  Node YS02001884 (11.82%)
  Node YS02001774 (10.86%)
  Node YSB1171 (4.27%)
  
  
  ***************************
  Time-Step Critical Elements
  ***************************
  Link WS02006252WS02006251 (59.74%)
  Link WS02006238WS02006235 (9.55%)
  Link WS02006280WS02006229 (8.49%)
  Link YS02006556YS02006558 (6.38%)
  Link YS02001793JiankangQianchi (4.97%)
  
  
  ********************************
  Highest Flow Instability Indexes
  ********************************
  Link WS02006113WS02006111 (50)
  Link YS02163601YS02164001 (36)
  Link YS02001629YS02163301 (36)
  Link YS02163301YS02001633 (36)
  Link YS02001619YS02001622 (35)
  
  
  *************************
  Routing Time Step Summary
  *************************
  Minimum Time Step           :     0.50 sec
  Average Time Step           :     1.39 sec
  Maximum Time Step           :     5.00 sec
  Percent in Steady State     :    -0.00
  Average Iterations per Step :     4.24
  Percent Not Converging      :    20.22
  
  
  ***************************
  Subcatchment Runoff Summary
  ***************************
  
  ------------------------------------------------------------------------------------------------------------------------------
                            Total      Total      Total      Total     Imperv       Perv      Total       Total     Peak  Runoff
                           Precip      Runon       Evap      Infil     Runoff     Runoff     Runoff      Runoff   Runoff   Coeff
  Subcatchment                 mm         mm         mm         mm         mm         mm         mm    10^6 ltr      LPS
  ------------------------------------------------------------------------------------------------------------------------------
  sub0                       7.70       0.00       0.00       0.46       7.12       0.07       7.19        0.01     2.56   0.934
  sub1                       7.70       0.00       0.00       0.78       6.76       0.07       6.83        0.05    14.87   0.887
  sub2                       7.70       0.00       0.00       2.78       4.77       0.07       4.84        0.05    13.39   0.628
  sub3                       7.70       0.00       0.00       2.80       4.73       0.05       4.78        0.11    27.96   0.621
  sub4                       7.70       0.00       0.00       0.81       6.62       0.04       6.66        0.14    31.62   0.865
  sub5                       7.70       0.00       0.00       0.49       7.07       0.05       7.12        0.08    26.41   0.925
  sub7                       7.70       0.00       0.00       0.62       6.95       0.08       7.02        0.02     8.97   0.912
  sub8                       7.70       0.00       0.00       0.62       6.94       0.07       7.01        0.04    16.08   0.910
  sub9                       7.70       0.00       0.00       0.62       6.93       0.07       7.00        0.03    11.96   0.910
  sub10                      7.70       0.00       0.00       0.56       7.00       0.06       7.06        0.08    26.21   0.917
  sub11                      7.70       0.00       0.00       0.55       7.02       0.07       7.08        0.08    30.10   0.920
  sub12                      7.70       0.00       0.00       0.89       6.65       0.11       6.76        0.06    24.37   0.878
  sub14                      7.70       0.00       0.00       0.62       6.93       0.07       7.00        0.07    23.44   0.909
  sub15                      7.70       0.00       0.00       2.21       5.33       0.10       5.43        0.09    32.04   0.705
  sub16                      7.70       0.00       0.00       2.40       5.12       0.14       5.26        0.06    21.80   0.683
  sub17                      7.70       0.00       0.00       2.33       5.19       0.13       5.33        0.05    17.73   0.692
  sub22                      7.70       0.00       0.00       3.20       4.35       0.11       4.46        0.28   103.04   0.579
  sub23                      7.70       0.00       0.00       2.73       4.81       0.12       4.93        0.23    87.34   0.640
  sub60                      7.70       0.00       0.00       0.91       5.21       0.01       5.22        1.58   161.22   0.678
  sub61                      7.70       0.00       0.00       1.30       5.40       0.01       5.41        1.67   203.10   0.703
  sub62                      7.70       0.00       0.00       0.60       5.84       0.01       5.85        1.80   207.21   0.760
  sub63                      7.70       0.00       0.00       2.22       4.76       0.01       4.77        1.44   189.87   0.620
  sub64                      7.70       0.00       0.00       1.15       5.00       0.01       5.00        1.52   153.11   0.650
  sub65                      7.70       0.00       0.00       0.99       5.07       0.01       5.08        1.56   155.33   0.660
  sub66                      7.70       0.00       0.00       2.22       4.31       0.01       4.32        1.33   140.54   0.561
  sub67                      7.70       0.00       0.00       0.60       6.26       0.02       6.27        1.94   266.73   0.815
  sub68                      7.70       0.00       0.00       1.06       5.70       0.01       5.72        1.76   224.71   0.743
  sub69                      7.70       0.00       0.00       1.13       6.00       0.02       6.02        1.41   223.62   0.782
  sub70                      7.70       6.14       0.00       4.61       7.80       0.10       7.90        1.81   188.86   0.571
  sub71                      7.70       0.00       0.00       0.61       5.65       0.01       5.66        1.34   144.43   0.735
  sub72                      7.70       0.00       0.00       0.53       4.29       0.00       4.30        0.88    70.01   0.558
  1                          7.70       7.69       0.00       1.33       8.36       1.75      10.10        2.37   186.88   0.657
  2                          7.70       0.00       0.00       2.92       1.79       0.67       2.46        0.98   137.75   0.320
  
  
  ****************************
  Subcatchment Washoff Summary
  ****************************
  
  ------------------------------------------------------------------------------------------
                                 COD            SS            TN            TP         NH4-N
  Subcatchment                    kg            kg            kg            kg            kg
  ------------------------------------------------------------------------------------------
  sub0                         1.404         2.714         0.023         0.002         0.011
  sub1                         5.641        11.038         0.104         0.007         0.050
  sub2                         3.236         6.097         0.069         0.005         0.032
  sub3                         7.824        14.541         0.165         0.011         0.076
  sub4                        12.253        23.811         0.245         0.014         0.117
  sub5                        13.054        25.228         0.228         0.017         0.110
  sub7                         2.974         5.938         0.055         0.004         0.027
  sub8                         4.430         9.017         0.088         0.005         0.042
  sub9                         3.778         7.586         0.072         0.005         0.035
  sub10                       10.785        21.118         0.195         0.014         0.094
  sub11                       10.663        21.181         0.197         0.013         0.095
  sub12                        9.073        17.753         0.161         0.012         0.077
  sub14                        8.056        16.023         0.151         0.010         0.072
  sub15                        9.659        18.336         0.185         0.013         0.087
  sub16                        6.226        11.847         0.118         0.009         0.055
  sub17                        5.718        10.782         0.105         0.008         0.049
  sub22                       28.849        53.662         0.548         0.041         0.254
  sub23                       17.390        33.533         0.373         0.024         0.170
  sub60                       98.241       172.851         2.028         0.120         0.969
  sub61                      124.181       218.221         2.357         0.156         1.131
  sub62                      130.164       232.740         2.612         0.159         1.250
  sub63                       92.609       160.605         1.926         0.132         0.884
  sub64                      119.302       202.118         2.239         0.159         1.063
  sub65                      122.231       207.958         2.313         0.161         1.100
  sub66                       70.637       120.892         1.520         0.096         0.705
  sub67                      196.579       349.818         3.531         0.254         1.701
  sub68                      138.795       246.897         2.715         0.178         1.291
  sub69                      129.353       234.186         2.454         0.168         1.168
  sub70                      199.333       359.553         4.075         0.275         1.891
  sub71                       85.801       154.552         1.833         0.102         0.874
  sub72                       60.173        99.962         1.157         0.076         0.555
  1                          119.072       216.460         2.502         0.169         1.146
  2                           16.602        27.990         0.510         0.030         0.214
  ------------------------------------------------------------------------------------------
  System                    1864.088      3315.008        36.857         2.450        17.396
  
  
  ******************
  Node Depth Summary
  ******************
  
  ---------------------------------------------------------------------------------
                                 Average  Maximum  Maximum  Time of Max    Reported
                                   Depth    Depth      HGL   Occurrence   Max Depth
  Node                 Type       Meters   Meters   Meters  days hr:min      Meters
  ---------------------------------------------------------------------------------
  WS02001211           JUNCTION     0.76     0.80     5.64     0  02:32        0.80
  WS02001212           JUNCTION     0.46     0.52     5.58     0  02:31        0.52
  WS02001213           JUNCTION     0.69     0.78     5.54     0  02:30        0.78
  WS02003069           JUNCTION     0.47     0.61     5.20     0  02:29        0.61
  WS02003072           JUNCTION     0.54     0.67     5.04     0  02:30        0.67
  WS02003073           JUNCTION     0.32     0.41     4.48     0  02:30        0.41
  WS02003060           JUNCTION     0.42     0.54     5.47     0  02:29        0.54
  WS02003066           JUNCTION     0.22     0.32     5.87     0  02:27        0.32
  WS02003059           JUNCTION     0.74     0.83     5.52     0  02:30        0.83
  WS02003067           JUNCTION     0.55     0.73     6.05     0  02:27        0.73
  WS02004401           JUNCTION     0.63     0.92     6.92     0  02:23        0.92
  WS02004402           JUNCTION     0.67     0.95     6.91     0  02:24        0.95
  WS02004403           JUNCTION     0.69     0.96     6.89     0  02:24        0.96
  WS02004404           JUNCTION     0.76     1.02     6.87     0  02:24        1.02
  WS02004406           JUNCTION     0.77     1.00     6.83     0  02:24        1.00
  WS02004409           JUNCTION     0.45     0.72     6.49     0  02:26        0.72
  WS02004410           JUNCTION     0.47     0.74     6.46     0  02:26        0.74
  WS02004411           JUNCTION     0.49     0.74     6.42     0  02:26        0.74
  WS02004412           JUNCTION     0.51     0.74     6.38     0  02:26        0.74
  WS02004413           JUNCTION     0.67     0.90     6.37     0  02:27        0.90
  WS02004405           JUNCTION     0.76     1.01     6.86     0  02:24        1.01
  WS02006109           JUNCTION     0.72     1.06     7.68     0  02:22        1.05
  WS02006110           JUNCTION     0.71     0.98     7.56     0  02:20        0.97
  WS02006111           JUNCTION     0.20     0.31     7.02     0  02:23        0.31
  WS02006112           JUNCTION     0.80     1.17     7.06     0  02:26        1.14
  WS02006113           JUNCTION     0.31     0.49     7.38     0  02:22        0.49
  WS02006115           JUNCTION     0.53     0.83     6.97     0  02:23        0.83
  WS02006116           JUNCTION     0.61     0.91     6.95     0  02:23        0.91
  WS02006230           JUNCTION     0.68     1.13     7.88     0  03:22        1.13
  WS02006231           JUNCTION     0.45     0.87     7.99     0  03:22        0.86
  WS02006232           JUNCTION     0.58     1.06     8.10     0  03:22        1.05
  WS02006234           JUNCTION     0.50     1.07     8.22     0  03:22        1.04
  WS02006235           JUNCTION     0.53     1.14     8.31     0  03:22        1.11
  WS02006238           JUNCTION     0.55     1.18     8.33     0  04:02        1.15
  WS02006240           JUNCTION     0.45     1.20     8.49     0  04:02        1.10
  WS02006242           JUNCTION     0.49     1.33     8.59     0  04:02        1.19
  WS02006243           JUNCTION     0.37     1.30     8.72     0  04:02        1.10
  WS02006245           JUNCTION     0.35     1.30     8.79     0  04:02        1.09
  WS02006247           JUNCTION     0.36     1.27     8.77     0  04:02        1.12
  WS02006248           JUNCTION     0.31     1.10     8.69     0  04:02        1.07
  WS02006249           JUNCTION     0.33     1.09     8.69     0  03:20        1.09
  WS02006239           JUNCTION     0.50     1.17     8.38     0  04:02        1.13
  WS02006251           JUNCTION     0.31     1.22     8.89     0  07:23        1.11
  WS02006252           JUNCTION     0.22     0.78     9.02     0  07:23        0.67
  WS02006253           JUNCTION     0.34     1.27     8.91     0  07:23        1.14
  WS02006256           JUNCTION     1.52     2.35     9.28     0  00:48        2.35
  WS02004138           JUNCTION     0.19     0.20     7.45     0  00:00        0.19
  WS02004139           JUNCTION     0.70     0.75     5.66     0  02:32        0.75
  WS02004407           JUNCTION     0.20     0.32     6.63     0  02:24        0.32
  WS02006228           JUNCTION     0.71     1.12     7.77     0  02:22        1.11
  WS02006229           JUNCTION     0.69     1.12     7.82     0  02:20        1.12
  WS02006280           JUNCTION     0.06     0.20     8.47     0  02:11        0.20
  WS02006284           JUNCTION     0.36     0.56     8.96     0  02:11        0.56
  WS02006287           JUNCTION     0.09     0.30     9.25     0  02:11        0.30
  WSF200               JUNCTION     0.20     0.33     5.57     0  02:26        0.33
  HS02004901           JUNCTION     0.12     0.30    10.12     0  02:09        0.30
  HS02004881           JUNCTION     0.01     0.04     9.07     0  02:11        0.04
  HS02004876           JUNCTION     0.04     0.12     9.15     0  02:11        0.12
  HS02004870           JUNCTION     0.01     0.06     9.35     0  02:11        0.06
  HS02004862           JUNCTION     0.02     0.07     9.46     0  02:12        0.07
  HS02004856           JUNCTION     0.08     0.13     9.55     0  02:11        0.13
  HS02004852           JUNCTION     0.01     0.05     9.56     0  02:11        0.05
  HS02004848           JUNCTION     0.01     0.04     9.65     0  02:11        0.04
  HS02004842           JUNCTION     0.33     0.38     9.65     0  02:11        0.38
  HS02004837           JUNCTION     0.03     0.07     9.65     0  02:11        0.07
  HS02004830           JUNCTION     0.04     0.08     9.55     0  02:11        0.08
  HS02004824           JUNCTION     0.02     0.06     9.46     0  02:13        0.06
  HS02004817           JUNCTION     0.43     0.60     9.45     0  02:11        0.60
  HS02004807           JUNCTION     0.12     0.27     9.44     0  02:11        0.27
  HS02004802           JUNCTION     0.16     0.31     9.44     0  02:11        0.31
  HS02004799           JUNCTION     0.11     0.36     9.57     0  02:10        0.36
  HS02004792           JUNCTION     0.03     0.15     9.68     0  02:09        0.15
  HS02004788           JUNCTION     0.02     0.11    10.01     0  02:10        0.11
  HS02004785           JUNCTION     0.04     0.19    10.09     0  02:09        0.19
  HS02004777           JUNCTION     0.14     0.32    10.11     0  02:09        0.32
  HS02004770           JUNCTION     0.11     0.29    10.12     0  02:09        0.29
  HS02004480           JUNCTION     0.07     0.28     9.53     0  02:10        0.28
  HS02004479           JUNCTION     0.11     0.32     9.53     0  02:10        0.32
  HS02004478           JUNCTION     0.06     0.19     9.42     0  02:11        0.19
  YS02001745           JUNCTION     0.69     0.86     8.38     0  03:09        0.86
  YS02001748           JUNCTION     1.08     1.36     8.44     0  02:52        1.30
  YS02001751           JUNCTION     1.26     1.53     8.41     0  03:17        1.51
  YS02001754           JUNCTION     1.51     1.81     8.41     0  03:15        1.79
  YS02001762           JUNCTION     1.70     2.02     8.42     0  03:15        2.01
  YS02001765           JUNCTION     1.66     1.97     8.42     0  03:16        1.96
  YS02001767           JUNCTION     1.62     1.92     8.41     0  03:16        1.92
  YS02001770           JUNCTION     1.62     1.90     8.40     0  03:22        1.90
  YS02001774           JUNCTION     1.69     1.97     8.39     0  03:38        1.96
  YS02001779           JUNCTION     1.44     1.68     8.37     0  02:50        1.68
  YS02001882           JUNCTION     0.36     0.69     7.40     0  02:35        0.68
  YS02001884           JUNCTION     0.46     0.78     7.39     0  02:35        0.77
  YS02001759           JUNCTION     1.74     2.06     8.43     0  03:16        2.05
  YS02001887           JUNCTION     0.54     0.85     7.39     0  02:36        0.85
  YS02001890           JUNCTION     0.57     0.88     7.39     0  02:36        0.88
  YS02001898           JUNCTION     0.34     0.64     7.37     0  02:34        0.63
  YS02001901           JUNCTION     0.45     0.76     7.37     0  02:37        0.76
  YS02001904           JUNCTION     0.43     0.74     7.37     0  02:34        0.73
  YS02001907           JUNCTION     0.76     1.08     7.37     0  02:33        1.07
  YS02001910           JUNCTION     0.55     0.85     7.36     0  02:37        0.85
  YS02001915           JUNCTION     0.35     0.65     7.37     0  02:34        0.64
  YS02001918           JUNCTION     0.12     0.30     7.36     0  02:35        0.29
  YS02001619           JUNCTION     1.23     1.48     8.41     0  02:56        1.46
  YS02001629           JUNCTION     1.57     1.85     8.40     0  02:56        1.83
  YS02001641           JUNCTION     1.67     1.93     8.37     0  02:57        1.93
  YS02001644           JUNCTION     1.68     1.92     8.35     0  02:56        1.92
  YS02001652           JUNCTION     1.52     2.06     8.65     0  03:17        1.89
  YS02001655           JUNCTION     1.29     2.20     9.05     0  02:32        1.71
  YS02001920           JUNCTION     0.22     0.37     7.38     0  02:35        0.37
  YS02001923           JUNCTION     0.09     0.12     7.38     0  03:01        0.12
  YS02001926           JUNCTION     0.18     0.24     7.68     0  03:01        0.24
  YS02001929           JUNCTION     0.09     0.12     7.82     0  03:01        0.12
  YS02001658           JUNCTION     1.03     1.94     9.09     0  03:17        1.48
  YS02001661           JUNCTION     0.80     1.89     9.30     0  03:17        1.27
  YS02001664           JUNCTION     0.35     0.58     8.50     0  03:07        0.56
  YS02001622           JUNCTION     1.25     1.49     8.40     0  02:59        1.48
  YS02001633           JUNCTION     1.66     1.94     8.40     0  02:59        1.92
  YS02001649           JUNCTION     1.71     2.05     8.44     0  03:03        2.05
  YS02001757           JUNCTION     1.84     2.17     8.43     0  03:16        2.15
  YS02001895           JUNCTION     0.33     0.63     7.38     0  02:35        0.63
  YS02001625           JUNCTION     1.53     1.78     8.38     0  02:53        1.78
  YS02163301           JUNCTION     1.60     1.88     8.40     0  02:59        1.87
  YS02163601           JUNCTION     1.71     1.99     8.39     0  02:56        1.97
  YS02164001           JUNCTION     1.65     1.92     8.38     0  02:56        1.91
  YS02001647           JUNCTION     1.51     1.80     8.41     0  03:05        1.78
  YSB1154              JUNCTION     0.25     0.47     9.53     0  02:09        0.47
  YSB6556              JUNCTION     0.14     0.36     9.53     0  02:10        0.36
  YSB1174              JUNCTION     0.20     0.42     9.53     0  02:10        0.42
  YSB1171              JUNCTION     0.40     0.63     9.53     0  02:10        0.63
  YS02006553           JUNCTION     0.76     1.10     7.39     0  02:33        1.08
  YS02006561           JUNCTION     0.19     0.51     7.17     0  02:33        0.50
  YS02006556           JUNCTION     0.73     1.10     7.41     0  02:33        1.06
  YS02006558           JUNCTION     0.78     1.14     7.41     0  02:33        1.11
  YS02001783           JUNCTION     0.34     1.34     7.48     0  02:33        1.02
  YS02001784           JUNCTION     0.37     1.48     7.55     0  02:33        1.02
  YS02001786           JUNCTION     0.33     1.31     7.34     0  02:33        0.96
  YS02001788           JUNCTION     0.26     1.30     7.28     0  02:33        0.91
  YS02001790           JUNCTION     0.34     1.96     7.60     0  02:32        1.15
  YS02001791           JUNCTION     0.27     2.67     8.14     0  02:32        1.21
  YS02001793           JUNCTION     0.33     2.75     7.58     0  03:38        1.79
  WSC                  OUTFALL      0.32     0.41     1.08     0  02:31        0.41
  JK-storage           STORAGE      2.23     5.80     6.60     0  02:32        5.80
  CC-storage           STORAGE      1.10     1.38     8.38     0  04:18        1.38
  XR-storage           STORAGE      4.56     7.38     5.38     0  04:11        7.38
  
  
  *******************
  Node Inflow Summary
  *******************
  
  -------------------------------------------------------------------------------------------------
                                  Maximum  Maximum                  Lateral       Total        Flow
                                  Lateral    Total  Time of Max      Inflow      Inflow     Balance
                                   Inflow   Inflow   Occurrence      Volume      Volume       Error
  Node                 Type           LPS      LPS  days hr:min    10^6 ltr    10^6 ltr     Percent
  -------------------------------------------------------------------------------------------------
  WS02001211           JUNCTION      7.35   389.62     0  03:41       0.207        9.85       0.416
  WS02001212           JUNCTION      0.00   391.89     0  03:41           0        9.81       0.258
  WS02001213           JUNCTION      0.00   394.13     0  03:41           0        9.79       0.295
  WS02003069           JUNCTION      0.32  1019.47     0  02:29     0.00902        16.6       0.225
  WS02003072           JUNCTION      0.00  1019.45     0  02:30           0        16.6       0.268
  WS02003073           JUNCTION      1.82  1021.30     0  02:30      0.0514        16.6       0.315
  WS02003060           JUNCTION     16.53  1019.05     0  02:28       0.466        16.7       0.212
  WS02003066           JUNCTION      0.00   620.77     0  02:27           0        6.49       0.076
  WS02003059           JUNCTION      0.00   397.77     0  03:41           0        9.76       0.426
  WS02003067           JUNCTION      0.00   620.72     0  02:27           0         6.5       0.154
  WS02004401           JUNCTION      0.00   624.45     0  02:23           0        6.74       0.319
  WS02004402           JUNCTION      0.00   624.23     0  02:24           0        6.72       0.302
  WS02004403           JUNCTION      0.00   623.44     0  02:24           0         6.7       0.276
  WS02004404           JUNCTION      0.16   623.22     0  02:24     0.00457        6.68       0.210
  WS02004406           JUNCTION      0.00   623.02     0  02:24           0        6.65       0.507
  WS02004409           JUNCTION      0.00   622.93     0  02:24           0        6.61       0.267
  WS02004410           JUNCTION      0.00   621.55     0  02:25           0        6.59       0.304
  WS02004411           JUNCTION      0.00   621.08     0  02:26           0        6.57       0.312
  WS02004412           JUNCTION      0.00   620.85     0  02:26           0        6.55       0.335
  WS02004413           JUNCTION      0.00   620.83     0  02:27           0        6.53       0.496
  WS02004405           JUNCTION      0.04   623.16     0  02:24     0.00107        6.67       0.310
  WS02006109           JUNCTION      1.23   614.68     0  02:22      0.0347        6.81       0.267
  WS02006110           JUNCTION      0.00   614.62     0  02:22           0        6.79       0.284
  WS02006111           JUNCTION      0.00   646.20     0  02:23           0        6.77       0.052
  WS02006112           JUNCTION     17.73   631.30     0  02:22      0.0457        6.81       0.437
  WS02006113           JUNCTION      0.00   615.40     0  02:22           0        6.77       0.131
  WS02006115           JUNCTION      0.00   634.47     0  02:22           0        6.78       0.306
  WS02006116           JUNCTION      0.00   624.59     0  02:22           0        6.76       0.259
  WS02006230           JUNCTION     10.28   524.58     0  07:24        0.29        5.42       0.167
  WS02006231           JUNCTION      0.00   514.84     0  07:24           0        5.14       0.198
  WS02006232           JUNCTION      0.00   514.99     0  07:24           0        5.14       0.272
  WS02006234           JUNCTION      0.00   515.23     0  07:24           0        5.14       0.104
  WS02006235           JUNCTION      0.00   515.81     0  07:24           0        5.26       0.191
  WS02006238           JUNCTION      0.00   348.63     0  07:24           0        2.34       0.229
  WS02006240           JUNCTION      0.00   348.68     0  07:24           0        2.25       0.357
  WS02006242           JUNCTION      0.00   351.65     0  06:52           0         2.2       0.378
  WS02006243           JUNCTION      0.00   360.98     0  06:51           0        2.17       0.118
  WS02006245           JUNCTION      0.00   366.33     0  06:51           0        2.17       0.468
  WS02006247           JUNCTION      0.00   370.71     0  06:51           0        2.16       0.062
  WS02006248           JUNCTION      0.00   375.58     0  06:51           0        2.16      -0.114
  WS02006249           JUNCTION      0.00   421.85     0  07:23           0        2.18       0.178
  WS02006239           JUNCTION      0.00   348.68     0  07:24           0        2.29       0.024
  WS02006251           JUNCTION      0.08   410.01     0  07:23     0.00217        2.23      -0.019
  WS02006252           JUNCTION      0.00   400.00     0  07:20           0        1.92       0.003
  WS02006253           JUNCTION      2.56   145.80     0  03:20     0.00582        0.31      -0.002
  WS02006256           JUNCTION      0.00   983.00     0  02:50           0         6.4       0.021
  WS02004138           JUNCTION      0.00   380.00     0  00:00           0        9.69       0.066
  WS02004139           JUNCTION      0.32   394.45     0  00:00     0.00905        9.69       0.477
  WS02004407           JUNCTION      0.00   623.45     0  02:24           0        6.62       0.112
  WS02006228           JUNCTION      0.00   613.44     0  02:22           0        6.79       0.196
  WS02006229           JUNCTION      0.00   619.45     0  02:20           0        6.82       0.210
  WS02006280           JUNCTION      0.00   410.48     0  02:11           0        1.42       0.005
  WS02006284           JUNCTION      0.10   410.42     0  02:11      0.0027        1.42       0.086
  WS02006287           JUNCTION      0.00   410.25     0  02:11           0        1.41       0.050
  WSF200               JUNCTION      0.00   620.80     0  02:27           0        6.48       0.069
  HS02004901           JUNCTION     21.80    21.80     0  02:06      0.0551      0.0552       3.285
  HS02004881           JUNCTION      8.97    82.21     0  02:11      0.0237       0.254       0.071
  HS02004876           JUNCTION     14.87    73.96     0  02:11      0.0454       0.231       0.233
  HS02004870           JUNCTION     16.08    59.43     0  02:11      0.0448       0.185       0.056
  HS02004862           JUNCTION     13.59    44.27     0  02:11      0.0507       0.141       0.121
  HS02004856           JUNCTION     11.96    30.81     0  02:11      0.0337      0.0916       1.595
  HS02004852           JUNCTION      0.00    19.44     0  02:11           0       0.058       0.091
  HS02004848           JUNCTION     27.96    27.96     0  02:13       0.108       0.108       0.039
  HS02004842           JUNCTION      0.00     9.44     0  02:21           0      0.0627      26.168
  HS02004837           JUNCTION     32.56    40.37     0  02:11       0.257       0.307       0.265
  HS02004830           JUNCTION      0.15    40.48     0  02:11     0.00423       0.297       0.417
  HS02004824           JUNCTION     31.67    71.94     0  02:13        0.14       0.436       0.123
  HS02004817           JUNCTION      0.60    72.52     0  02:13      0.0169       0.452       3.826
  HS02004807           JUNCTION     30.10   100.36     0  02:12      0.0823       0.518       0.822
  HS02004802           JUNCTION      0.00   101.05     0  02:13           0       0.514       0.794
  HS02004799           JUNCTION     23.44   263.71     0  02:09      0.0666        0.78       0.306
  HS02004792           JUNCTION    103.32   240.66     0  02:09       0.289       0.714       0.056
  HS02004788           JUNCTION     33.71   139.69     0  02:09        0.14       0.426       0.090
  HS02004785           JUNCTION      0.15   106.41     0  02:09     0.00423       0.287       0.167
  HS02004777           JUNCTION      0.03   106.80     0  02:08    0.000846       0.287       1.836
  HS02004770           JUNCTION     87.34   107.98     0  02:07       0.235       0.288       1.083
  HS02004480           JUNCTION      0.00   311.54     0  02:10           0       0.917       0.088
  HS02004479           JUNCTION      0.00    48.60     0  02:11           0       0.149       0.493
  HS02004478           JUNCTION      0.00   410.20     0  02:11           0        1.42       0.042
  YS02001745           JUNCTION    161.23   253.09     0  02:39        1.58        1.59       0.689
  YS02001748           JUNCTION      0.04   394.29     0  02:39     0.00127        1.58       1.416
  YS02001751           JUNCTION      0.01   321.90     0  02:30     0.00031        1.55       1.516
  YS02001754           JUNCTION      0.26   222.50     0  02:34     0.00733        1.54       1.630
  YS02001762           JUNCTION      0.00   238.41     0  02:40           0        1.56       1.363
  YS02001765           JUNCTION      0.00   233.49     0  02:40           0        1.56       1.583
  YS02001767           JUNCTION      0.54   229.46     0  02:40      0.0151        1.58       2.312
  YS02001770           JUNCTION    207.36   222.81     0  02:31         1.8        1.81       1.769
  YS02001774           JUNCTION      0.00    99.27     0  03:19           0       0.229      12.181
  YS02001779           JUNCTION      0.01   100.29     0  03:19    0.000141       0.196       8.542
  YS02001882           JUNCTION      0.00    19.20     0  02:35           0      0.0143      15.896
  YS02001884           JUNCTION      0.00    41.02     0  02:35           0      0.0464      13.410
  YS02001759           JUNCTION    203.14   443.73     0  02:38        1.67        3.19       0.711
  YS02001887           JUNCTION    267.18   301.70     0  02:36        1.95        1.97       0.396
  YS02001890           JUNCTION      0.00   288.02     0  02:36           0        1.93       0.442
  YS02001898           JUNCTION      0.00   292.16     0  02:36           0        1.92       0.142
  YS02001901           JUNCTION      0.00   285.46     0  02:36           0        1.92       0.324
  YS02001904           JUNCTION      0.00   274.77     0  02:29           0        1.92       0.299
  YS02001907           JUNCTION      0.00   496.89     0  02:49           0        4.19       0.550
  YS02001910           JUNCTION      0.00   235.71     0  02:36           0        2.28       0.482
  YS02001915           JUNCTION    144.45   234.53     0  02:36        1.34        2.29       0.232
  YS02001918           JUNCTION      0.00    89.92     0  02:36           0       0.952       0.164
  YS02001619           JUNCTION    140.54   140.54     0  02:39        1.32        1.32       0.921
  YS02001629           JUNCTION      0.00   199.90     0  02:29           0        1.25       2.330
  YS02001641           JUNCTION      0.00   346.86     0  02:38           0        2.72       0.781
  YS02001644           JUNCTION    153.15   686.13     0  03:19        1.52        6.24       0.425
  YS02001652           JUNCTION      0.00   258.37     0  02:36           0         1.4       1.734
  YS02001655           JUNCTION      0.15   374.38     0  02:32     0.00434        1.43       1.665
  YS02001920           JUNCTION      2.87    72.96     0  03:01      0.0809       0.955       0.267
  YS02001923           JUNCTION      0.04    70.09     0  03:01     0.00106       0.874       0.049
  YS02001926           JUNCTION      0.05    70.06     0  03:01     0.00147       0.876       0.330
  YS02001929           JUNCTION     70.01    70.01     0  03:01       0.875       0.875       0.047
  YS02001658           JUNCTION      0.00   586.57     0  02:39           0        1.47       1.102
  YS02001661           JUNCTION      0.00   516.76     0  03:03           0        1.81       0.020
  YS02001664           JUNCTION    189.87   353.22     0  03:02        1.44        1.78       0.311
  YS02001622           JUNCTION      0.00   179.67     0  02:31           0        1.31       2.489
  YS02001633           JUNCTION    155.53   347.73     0  02:38        1.57        2.78       1.161
  YS02001649           JUNCTION      0.00   675.99     0  02:34           0        4.47       0.833
  YS02001757           JUNCTION      0.00  1235.06     0  02:39           0        7.16       1.288
  YS02001895           JUNCTION      0.00   291.59     0  02:36           0        1.92       0.223
  YS02001625           JUNCTION      0.00   199.79     0  02:29           0        1.28       3.142
  YS02163301           JUNCTION      0.00   197.32     0  02:17           0        1.25       1.959
  YS02163601           JUNCTION      0.11   346.92     0  02:38      0.0031        2.73       1.104
  YS02164001           JUNCTION      0.00   346.62     0  02:38           0        2.71       0.746
  YS02001647           JUNCTION      0.00   502.33     0  02:38           0        3.75       0.749
  YSB1154              JUNCTION     26.41    26.41     0  02:09      0.0807      0.0818       1.793
  YSB6556              JUNCTION      0.00    26.32     0  02:10           0      0.0827       1.532
  YSB1174              JUNCTION     24.37    24.37     0  02:06       0.059      0.0598       2.192
  YSB1171              JUNCTION      0.00    48.45     0  02:09           0       0.148       4.465
  YS02006553           JUNCTION      0.00   496.16     0  02:49           0        4.18       0.360
  YS02006561           JUNCTION      0.00   726.73     0  02:49           0        5.91       0.015
  YS02006556           JUNCTION      0.00   495.24     0  02:48           0        4.18       0.259
  YS02006558           JUNCTION    225.59   734.39     0  02:29        1.78        5.94       0.074
  YS02001783           JUNCTION      0.00   741.70     0  02:33           0        5.91       0.029
  YS02001784           JUNCTION      1.06   721.31     0  02:48      0.0299        5.93       0.051
  YS02001786           JUNCTION      0.06   721.39     0  02:49     0.00159        5.93       0.047
  YS02001788           JUNCTION      0.07   776.00     0  02:50       0.002        5.93       0.031
  YS02001790           JUNCTION      0.15   823.31     0  02:50     0.00437        5.93       0.008
  YS02001791           JUNCTION      0.00   853.81     0  02:50           0        5.93       0.019
  YS02001793           JUNCTION      0.00   891.81     0  02:51           0        5.94      -0.035
  WSC                  OUTFALL       0.00  1021.35     0  02:31           0        16.6       0.000
  JK-storage           STORAGE       0.00   985.35     0  02:30           0        6.09     -15.242
  CC-storage           STORAGE       0.00  1240.09     0  02:39           0        5.66       1.122
  XR-storage           STORAGE     495.90   495.90     0  02:44           9         9.6      -0.969
  
  
  **********************
  Node Surcharge Summary
  **********************
  
  Surcharging occurs when water rises above the top of the highest conduit.
  ---------------------------------------------------------------------
                                               Max. Height   Min. Depth
                                   Hours       Above Crown    Below Rim
  Node                 Type      Surcharged         Meters       Meters
  ---------------------------------------------------------------------
  WS02004404           JUNCTION        0.18          0.023        2.757
  WS02004406           JUNCTION        0.02          0.002        2.448
  WS02004405           JUNCTION        0.14          0.012        2.788
  WS02006109           JUNCTION        1.74          0.238        1.582
  WS02006110           JUNCTION        0.52          0.068        1.782
  WS02006112           JUNCTION        0.63          0.174        1.506
  WS02006230           JUNCTION        0.35          0.052        1.518
  WS02006231           JUNCTION        0.57          0.160        1.370
  WS02006232           JUNCTION        1.44          0.363        1.117
  WS02006234           JUNCTION        0.97          0.346        0.894
  WS02006235           JUNCTION        1.12          0.433        0.857
  WS02006238           JUNCTION        1.17          0.461        0.969
  WS02006240           JUNCTION        0.72          0.489        0.901
  WS02006242           JUNCTION        0.80          0.595        0.225
  WS02006243           JUNCTION        0.50          0.595        0.175
  WS02006245           JUNCTION        0.45          0.595        0.255
  WS02006247           JUNCTION        0.45          0.559        0.201
  WS02006248           JUNCTION        0.36          0.380        0.000
  WS02006249           JUNCTION        0.39          0.390        0.000
  WS02006239           JUNCTION        0.93          0.431        0.859
  WS02006251           JUNCTION        0.14          0.186        0.994
  WS02006252           JUNCTION        0.74          0.380        0.720
  WS02006253           JUNCTION        0.15          0.227        2.253
  WS02006256           JUNCTION        6.55          2.050        0.000
  WS02006228           JUNCTION        1.69          0.288        1.912
  YS02001748           JUNCTION        4.95          0.280        0.910
  YS02001751           JUNCTION        5.24          0.529        0.671
  YS02001754           JUNCTION        5.45          0.756        0.394
  YS02001762           JUNCTION        5.63          1.025        0.125
  YS02001765           JUNCTION        5.62          0.971        0.129
  YS02001767           JUNCTION        5.62          0.924        0.106
  YS02001770           JUNCTION        5.60          0.873        0.047
  YS02001774           JUNCTION        5.63          0.968        0.082
  YS02001779           JUNCTION        5.44          0.680        0.000
  YS02001759           JUNCTION        5.64          1.062        0.148
  YS02001907           JUNCTION        0.90          0.075        0.875
  YS02001619           JUNCTION        5.24          0.477        0.133
  YS02001629           JUNCTION        5.25          0.467        0.003
  YS02001641           JUNCTION        5.62          0.934        0.166
  YS02001644           JUNCTION        5.62          0.920        0.000
  YS02001652           JUNCTION        5.51          1.028        0.102
  YS02001655           JUNCTION        5.27          1.200        0.000
  YS02001658           JUNCTION        4.99          0.945        0.355
  YS02001661           JUNCTION        0.10          0.822        0.568
  YS02001622           JUNCTION        5.31          0.494        0.126
  YS02001633           JUNCTION        5.61          0.924        0.136
  YS02001649           JUNCTION        5.63          1.050        0.000
  YS02001757           JUNCTION        5.68          1.168        0.042
  YS02001625           JUNCTION        5.59          0.780        0.000
  YS02163301           JUNCTION        5.60          0.883        0.147
  YS02163601           JUNCTION        5.64          0.994        0.086
  YS02164001           JUNCTION        5.62          0.925        0.175
  YS02001647           JUNCTION        5.57          0.801        0.099
  YS02006553           JUNCTION        0.98          0.102        1.088
  YS02006556           JUNCTION        0.01          0.055        1.295
  YS02006558           JUNCTION        0.01          0.044        1.356
  YS02001783           JUNCTION        0.27          0.543        1.057
  YS02001784           JUNCTION        0.27          0.681        0.809
  YS02001786           JUNCTION        0.26          0.514        0.916
  YS02001788           JUNCTION        0.26          0.505        0.975
  YS02001790           JUNCTION        0.86          1.157        0.000
  YS02001791           JUNCTION        0.95          1.872        0.048
  YS02001793           JUNCTION        1.14          1.749        0.851
  
  
  *********************
  Node Flooding Summary
  *********************
  
  Flooding refers to all water that overflows a node, whether it ponds or not.
  --------------------------------------------------------------------------
                                                             Total   Maximum
                                 Maximum   Time of Max       Flood    Ponded
                        Hours       Rate    Occurrence      Volume     Depth
  Node                 Flooded       LPS   days hr:min    10^6 ltr    Meters
  --------------------------------------------------------------------------
  WS02006248              0.01     15.42      0  04:02       0.000     0.000
  WS02006249              0.13     81.46      0  03:20       0.024     0.000
  WS02006256              2.64    775.29      0  04:02       3.374     0.000
  YS02001779              1.62    100.18      0  03:19       0.176     0.000
  YS02001644              3.77    686.04      0  03:19       4.480     0.000
  YS02001655              0.01    201.13      0  02:32       0.000     0.000
  YS02001649              0.02     29.90      0  03:05       0.001     0.000
  YS02001625              0.02     10.26      0  02:59       0.000     0.000
  YS02001790              0.01    273.30      0  02:32       0.001     0.000
  JK-storage              0.66    697.57      0  02:37       0.778     0.000
  
  
  **********************
  Storage Volume Summary
  **********************
  
  --------------------------------------------------------------------------------------------------
                         Average     Avg  Evap Exfil       Maximum     Max    Time of Max    Maximum
                          Volume    Pcnt  Pcnt  Pcnt        Volume    Pcnt     Occurrence    Outflow
  Storage Unit           1000 m3    Full  Loss  Loss       1000 m3    Full    days hr:min        LPS
  --------------------------------------------------------------------------------------------------
  JK-storage               0.112      39     0     0         0.291     100       0  02:32     983.00
  CC-storage               3.079      20     0     0         3.837      24       0  04:18     400.00
  XR-storage               0.547      59     0     0         0.885      96       0  04:11     380.00
  
  
  ***********************
  Outfall Loading Summary
  ***********************
  
  ---------------------------------------------------------------------------------------------------------------------------------
                         Flow       Avg       Max       Total         Total         Total         Total         Total         Total
                         Freq      Flow      Flow      Volume           COD            SS            TN            TP         NH4-N
  Outfall Node           Pcnt       LPS       LPS    10^6 ltr            kg            kg            kg            kg            kg
  ---------------------------------------------------------------------------------------------------------------------------------
  WSC                  100.00    667.89   1021.35      16.554      2151.476      3563.649       166.343        20.182       102.311
  ---------------------------------------------------------------------------------------------------------------------------------
  System               100.00    667.89   1021.35      16.554      2151.476      3563.649       166.343        20.182       102.311
  
  
  ********************
  Link Flow Summary
  ********************
  
  -----------------------------------------------------------------------------
                                 Maximum  Time of Max   Maximum    Max/    Max/
                                  |Flow|   Occurrence   |Veloc|    Full    Full
  Link                 Type          LPS  days hr:min     m/sec    Flow   Depth
  -----------------------------------------------------------------------------
  WS02003066WSF200     CONDUIT    620.80     0  02:27      2.82    0.10    0.25
  WS02006287WS02006284 CONDUIT    410.33     0  02:11      2.04    0.19    0.30
  WS02006284WS02006280 CONDUIT    410.48     0  02:11      2.27    0.17    0.28
  WS02006280WS02006229 CONDUIT    410.49     0  02:11      3.67    0.09    0.20
  WS02006229WS02006228 CONDUIT    613.44     0  02:22      1.22    2.03    1.00
  WS02006256WS02006235 CONDUIT    263.36     0  05:22      3.73    2.79    1.00
  WS02006253WS02006251 CONDUIT    135.19     0  03:20      0.63    0.41    1.00
  WS02006252WS02006251 CONDUIT    403.23     0  07:23      3.21    1.48    1.00
  WS02006251WS02006249 CONDUIT    421.85     0  07:23      1.13    1.22    1.00
  WS02006249WS02006248 CONDUIT    375.58     0  06:51      1.19    2.06    1.00
  WS02006248WS02006247 CONDUIT    370.71     0  06:51      1.16    0.81    1.00
  WS02006247WS02006245 CONDUIT    366.33     0  06:51      1.14    2.90    1.00
  WS02006245WS02006243 CONDUIT    360.98     0  06:51      1.18    1.07    1.00
  WS02006243WS02006242 CONDUIT    351.65     0  06:52      1.07    0.75    1.00
  WS02006242WS02006240 CONDUIT    348.68     0  07:24      1.00    1.38    1.00
  WS02006240WS02006239 CONDUIT    348.68     0  07:24      1.04    1.10    1.00
  WS02006239WS02006238 CONDUIT    348.63     0  07:24      0.91    1.12    1.00
  WS02006238WS02006235 CONDUIT    348.47     0  07:24      0.91    0.78    1.00
  WS02006235WS02006234 CONDUIT    515.23     0  07:24      1.34    5.44    1.00
  WS02006234WS02006232 CONDUIT    514.99     0  07:24      1.34    1.04    1.00
  WS02006232WS02006231 CONDUIT    514.84     0  07:24      1.34    1.08    1.00
  WS02006231WS02006230 CONDUIT    514.30     0  07:24      1.40    7.80    1.00
  WS02006230WS02006229 CONDUIT    523.17     0  07:25      1.36   11.64    1.00
  WS02006228WS02006109 CONDUIT    613.45     0  02:22      1.22    2.68    1.00
  WS02006116WS02004401 CONDUIT    624.45     0  02:23      0.86    0.86    0.92
  WS02006115WS02006116 CONDUIT    624.59     0  02:22      1.03    0.80    0.84
  WS02006113WS02006111 CONDUIT    646.20     0  02:23      2.58    0.77    0.50
  WS02006112WS02006115 CONDUIT    634.47     0  02:22      0.85    0.37    0.91
  WS02006111WS02006112 CONDUIT    620.58     0  02:22      1.69    0.30    0.69
  WS02006110WS02006113 CONDUIT    615.40     0  02:22      1.42    0.56    0.81
  WS02006109WS02006110 CONDUIT    614.62     0  02:22      1.22    1.18    1.00
  WS02004411WS02004412 CONDUIT    620.85     0  02:26      1.00    0.88    0.74
  WS02004401WS02004402 CONDUIT    624.23     0  02:24      0.88    0.75    0.94
  WS02004413WS02003067 CONDUIT    620.72     0  02:27      1.20    0.27    0.62
  WS02004412WS02004413 CONDUIT    620.83     0  02:27      0.90    0.42    0.82
  WS02004410WS02004411 CONDUIT    621.08     0  02:26      1.00    0.85    0.74
  WS02004409WS02004410 CONDUIT    621.55     0  02:25      1.01    0.80    0.73
  WS02004407WS02004409 CONDUIT    622.93     0  02:24      1.53    0.22    0.52
  WS02004406WS02004407 CONDUIT    623.45     0  02:24      1.13    0.28    0.66
  WS02004405WS02004406 CONDUIT    623.02     0  02:24      0.82    1.23    1.00
  WS02004404WS02004405 CONDUIT    623.12     0  02:24      1.02    6.10    1.00
  WS02004403WS02004404 CONDUIT    623.06     0  02:24      0.93    0.45    0.98
  WS02004402WS02004403 CONDUIT    623.44     0  02:24      0.96    0.90    0.95
  WS02004139WS02001211 CONDUIT    382.27     0  03:41      0.90    0.48    0.60
  WS02004138WS02004139 CONDUIT    394.13     0  00:00      3.62    0.08    0.44
  WS02003067WS02003066 CONDUIT    620.77     0  02:27      1.31    0.20    0.44
  WS02001213WS02003059 CONDUIT    397.77     0  03:41      0.89    0.66    0.79
  WS02001212WS02001213 CONDUIT    394.13     0  03:41      1.32    0.61    0.49
  WS02001211WS02001212 CONDUIT    391.89     0  03:41      0.78    0.30    0.66
  WS02003072WS02003073 CONDUIT   1019.48     0  02:30      1.78    2.20    0.51
  WS02003069WS02003072 CONDUIT   1019.45     0  02:30      1.67    0.49    0.53
  WS02003060WS02003069 CONDUIT   1019.15     0  02:29      1.90    0.40    0.48
  WS02003059WS02003060 CONDUIT    402.96     0  03:40      0.95    0.26    0.68
  HS02004901HS02004770 CONDUIT     20.93     0  02:08      0.07    0.08    0.42
  HS02004876HS02004881 CONDUIT     73.96     0  02:11      0.93    0.79    0.11
  HS02004870HS02004876 CONDUIT     59.39     0  02:11      0.64    0.04    0.13
  HS02004842HS02004848 CONDUIT      9.44     0  02:21      0.05    0.01    0.30
  HS02004837HS02004842 CONDUIT      9.86     0  02:22      0.42    0.01    0.32
  HS02004830HS02004837 CONDUIT     40.33     0  02:11      0.55    0.04    0.10
  HS02004824HS02004830 CONDUIT     40.47     0  02:12      0.59    0.05    0.10
  HS02004817HS02004824 CONDUIT     71.92     0  02:13      0.22    0.03    0.47
  HS02004770HS02004777 CONDUIT    106.77     0  02:08      0.35    0.20    0.43
  HS02004799HS02004480 CONDUIT    263.36     0  02:09      0.84    0.33    0.45
  HS02004792HS02004799 CONDUIT    240.51     0  02:09      0.95    0.15    0.36
  HS02004788HS02004792 CONDUIT    139.59     0  02:10      1.07    0.09    0.19
  HS02004785HS02004788 CONDUIT    106.32     0  02:10      0.71    0.80    0.21
  HS02004777HS02004785 CONDUIT    106.26     0  02:09      0.42    0.13    0.36
  HS02004480HS02004478 CONDUIT    311.54     0  02:10      1.27    1.31    0.35
  HS02004479HS02004480 CONDUIT     48.95     0  02:11      0.17    0.05    0.43
  HS02004862HS02004870 CONDUIT     44.23     0  02:12      0.64    0.05    0.10
  HS02004848HS02004852 CONDUIT     19.44     0  02:11      0.43    0.02    0.06
  HS02004856HS02004862 CONDUIT     30.74     0  02:11      0.47    0.03    0.09
  HS02004852HS02004856 CONDUIT     19.47     0  02:12      0.23    0.02    0.12
  HS02004802HS02004478 CONDUIT    101.92     0  02:14      0.42    0.09    0.36
  HS02004478WS02006287 CONDUIT    410.25     0  02:11      1.74    0.11    0.26
  HS02004817HS02004807 CONDUIT     73.67     0  02:15      0.17    0.04    0.63
  HS02004807HS02004802 CONDUIT    101.05     0  02:13      0.36    0.19    0.41
  YS02001759YS02001757 CONDUIT    447.59     0  02:38      0.57    0.32    1.00
  YS02001762YS02001759 CONDUIT    243.17     0  02:40      0.31    0.28    1.00
  YS02001765YS02001762 CONDUIT    238.41     0  02:40      0.30    0.22    1.00
  YS02001770YS02001767 CONDUIT    228.92     0  02:40      0.30    0.91    1.00
  YS02001774YS02001770 CONDUIT     99.27     0  03:19      0.14    0.06    1.00
  YS02001779YS02001774 CONDUIT    100.29     0  03:19      0.13    0.05    1.00
  YS02001649YS02001757 CONDUIT    679.23     0  02:36      0.86    0.41    1.00
  YS02001767YS02001765 CONDUIT    233.49     0  02:40      0.30    0.29    1.00
  YS02006561YS02001783 CONDUIT    741.70     0  02:33      2.12    0.38    0.82
  YS02001783YS02001784 CONDUIT    720.25     0  02:48      1.61    0.99    1.00
  YS02001784YS02001785 CONDUIT    721.34     0  02:49      1.74    1.68    1.00
  YS02001788YS02001790 CONDUIT    823.15     0  02:50      2.27    0.61    1.00
  YS02001790YS02001791 CONDUIT    853.81     0  02:50      2.78    0.93    1.00
  YS02001791YS02001793 CONDUIT    891.81     0  02:51      5.62    0.38    1.00
  YS02001910YS02001907 CONDUIT    237.84     0  02:36      0.49    0.13    0.93
  YS02001786YS02001788 CONDUIT    775.93     0  02:50      2.18    1.50    1.00
  YS02001915YS02001910 CONDUIT    235.71     0  02:36      0.45    0.12    0.75
  YS02001918YS02001915 CONDUIT     90.15     0  02:36      0.44    0.05    0.47
  YS02001923YS02001920 CONDUIT     70.09     0  03:01      0.59    0.03    0.24
  YS02001926YS02001923 CONDUIT     70.05     0  03:01      0.67    0.10    0.19
  YS02001929YS02001926 CONDUIT     70.01     0  03:01      0.73    0.03    0.18
  YS02001920YS02001918 CONDUIT     89.92     0  02:36      0.59    0.09    0.33
  YS02001629YS02163301 CONDUIT    197.32     0  02:17      0.25    0.24    1.00
  YS02001619YS02001622 CONDUIT    179.67     0  02:31      0.77    0.26    1.00
  YS02001622YS02001625 CONDUIT    199.79     0  02:29      0.32    0.11    1.00
  YS02001625YS02001629 CONDUIT    199.90     0  02:29      0.31    0.10    1.00
  YS02163301YS02001633 CONDUIT    197.47     0  02:17      0.25    0.19    1.00
  YS02163601YS02164001 CONDUIT    346.62     0  02:38      0.44    0.31    1.00
  YS02164001YS02001641 CONDUIT    346.86     0  02:38      0.44    0.47    1.00
  YS02001641YS02001644 CONDUIT    347.74     0  02:38      0.44    1.12    1.00
  YS02001647YS02001649 CONDUIT    504.45     0  02:38      0.64    0.27    1.00
  YS02006553YS02006556 CONDUIT    495.24     0  02:48      0.63    0.42    1.00
  YS02006556YS02006558 CONDUIT    508.80     0  02:29      0.65    0.40    1.00
  YSB6556YSB1171       CONDUIT     26.65     0  02:11      0.09    0.03    0.70
  YS02001907YS02006553 CONDUIT    496.16     0  02:49      0.55    0.58    1.00
  YS02006558YS02006561 CONDUIT    726.73     0  02:49      3.26    1.61    0.92
  YS02001633YS02163601 CONDUIT    346.81     0  02:38      0.44    0.36    1.00
  YS02001644YS02001647 CONDUIT    502.33     0  02:38      0.64    0.30    1.00
  YS02001745YS02001748 CONDUIT    394.24     0  02:39      1.66    0.15    0.93
  YS02001748YS02001751 CONDUIT    321.89     0  02:30      1.25    0.16    1.00
  YS02001751YS02001754 CONDUIT    222.24     0  02:34      0.93    0.11    1.00
  YS02001754YS02001757 CONDUIT    220.40     0  02:34      0.33    0.09    1.00
  YS02001882YS02001884 CONDUIT     24.93     0  02:36      0.08    0.03    0.70
  YS02001884YS02001887 CONDUIT     41.02     0  02:35      0.06    0.05    0.78
  YS02001890YS02001895 CONDUIT    291.59     0  02:36      0.46    0.14    0.75
  YS02001895YS02001898 CONDUIT    292.16     0  02:36      0.58    0.51    0.61
  YS02001898YS02001901 CONDUIT    285.46     0  02:36      0.51    0.18    0.69
  YS02001901YS02001904 CONDUIT    274.77     0  02:29      0.46    0.43    0.75
  YS02001904YS02001907 CONDUIT    280.26     0  02:28      0.39    0.10    0.87
  YS02001887YS02001890 CONDUIT    288.02     0  02:36      0.41    0.49    0.84
  YS02001652YS02001649 CONDUIT    259.77     0  02:36      0.39    0.13    1.00
  YS02001655YS02001652 CONDUIT    258.37     0  02:36      0.97    0.13    1.00
  YS02001658YS02001655 CONDUIT    374.22     0  02:32      1.45    0.16    1.00
  YS02001661YS02001658 CONDUIT    586.57     0  02:39      1.75    0.23    1.00
  YS02001664YS02001661 CONDUIT    516.76     0  03:03      1.58    0.16    0.71
  YSB1154YSB6556       CONDUIT     26.32     0  02:10      0.19    0.05    0.59
  YSB1174YSB1171       CONDUIT     23.10     0  02:07      0.08    0.04    0.71
  YSB1171HS02004479    CONDUIT     48.60     0  02:11      0.54    0.03    0.56
  HS02004881HS02006253 CONDUIT     82.20     0  02:11      2.22    0.02    0.51
  YS02001793JiankangQianchi CONDUIT    985.35     0  02:30     16.77    0.08    1.00
  YS02001757CaochengTiaoxuchi CONDUIT   1240.09     0  02:39      2.44    0.54    1.00
  WSF200WS02003060     CONDUIT    620.91     0  02:28      1.67    0.14    0.36
  1                    CONDUIT   1021.35     0  02:31      3.35    0.36    0.41
  CC-Pump-1            PUMP       200.00     0  06:50              1.00
  CC-Pump-2            PUMP       200.00     0  07:20              1.00
  JK-Pump-1            PUMP       300.00     0  02:50              1.00
  JK-Pump-2            PUMP       683.00     0  02:50              1.00
  XR-Pump-1            PUMP        95.00     0  00:00              1.00
  XR-Pump-2            PUMP        95.00     0  00:00              1.00
  XR-Pump-3            PUMP        95.00     0  00:00              1.00
  XR-Pump-4            PUMP        95.00     0  00:00              1.00
  
  
  ***************************
  Flow Classification Summary
  ***************************
  
  -------------------------------------------------------------------------------------
                      Adjusted    ---------- Fraction of Time in Flow Class ---------- 
                       /Actual         Up    Down  Sub   Sup   Up    Down  Norm  Inlet 
  Conduit               Length    Dry  Dry   Dry   Crit  Crit  Crit  Crit  Ltd   Ctrl  
  -------------------------------------------------------------------------------------
  WS02003066WSF200        1.00   0.01  0.04  0.00  0.00  0.95  0.00  0.00  0.71  0.00
  WS02006287WS02006284    1.00   0.03  0.03  0.00  0.64  0.31  0.00  0.00  0.75  0.00
  WS02006284WS02006280    1.00   0.05  0.00  0.00  0.00  0.00  0.00  0.95  0.00  0.00
  WS02006280WS02006229    1.00   0.05  0.00  0.00  0.00  0.00  0.00  0.95  0.00  0.00
  WS02006229WS02006228    1.00   0.00  0.00  0.00  1.00  0.00  0.00  0.00  0.00  0.00
  WS02006256WS02006235    1.00   0.02  0.00  0.00  0.97  0.00  0.00  0.00  0.00  0.00
  WS02006253WS02006251    1.00   0.01  0.02  0.00  0.95  0.00  0.01  0.00  0.00  0.00
  WS02006252WS02006251    1.00   0.25  0.00  0.00  0.02  0.00  0.74  0.00  0.00  0.00
  WS02006251WS02006249    1.00   0.00  0.00  0.00  1.00  0.00  0.00  0.00  0.40  0.00
  WS02006249WS02006248    1.00   0.00  0.01  0.00  0.85  0.00  0.15  0.00  0.00  0.00
  WS02006248WS02006247    1.00   0.01  0.00  0.00  0.98  0.00  0.00  0.02  0.23  0.00
  WS02006247WS02006245    1.00   0.01  0.00  0.00  0.96  0.00  0.00  0.03  0.00  0.00
  WS02006245WS02006243    1.00   0.01  0.00  0.00  0.91  0.00  0.00  0.08  0.01  0.00
  WS02006243WS02006242    1.00   0.01  0.00  0.00  0.97  0.00  0.00  0.02  0.23  0.00
  WS02006242WS02006240    1.00   0.01  0.01  0.00  0.97  0.00  0.00  0.00  0.00  0.00
  WS02006240WS02006239    1.00   0.03  0.00  0.00  0.92  0.00  0.00  0.05  0.02  0.00
  WS02006239WS02006238    1.00   0.02  0.00  0.00  0.98  0.00  0.00  0.00  0.08  0.00
  WS02006238WS02006235    1.00   0.02  0.00  0.00  0.98  0.00  0.00  0.00  0.00  0.00
  WS02006235WS02006234    1.00   0.02  0.00  0.00  0.94  0.00  0.03  0.00  0.00  0.00
  WS02006234WS02006232    1.00   0.02  0.00  0.00  0.97  0.00  0.00  0.00  0.04  0.00
  WS02006232WS02006231    1.00   0.02  0.00  0.00  0.97  0.00  0.00  0.00  0.00  0.00
  WS02006231WS02006230    1.00   0.03  0.00  0.00  0.49  0.00  0.48  0.00  0.00  0.00
  WS02006230WS02006229    1.00   0.00  0.00  0.00  0.99  0.00  0.00  0.01  0.00  0.00
  WS02006228WS02006109    1.00   0.00  0.00  0.00  1.00  0.00  0.00  0.00  0.00  0.00
  WS02006116WS02004401    1.00   0.03  0.00  0.00  0.97  0.00  0.00  0.00  0.00  0.00
  WS02006115WS02006116    1.00   0.03  0.00  0.00  0.96  0.00  0.00  0.00  0.00  0.00
  WS02006113WS02006111    1.00   0.02  0.00  0.00  0.01  0.97  0.00  0.00  0.21  0.00
  WS02006112WS02006115    1.00   0.02  0.01  0.00  0.97  0.00  0.00  0.00  0.00  0.00
  WS02006111WS02006112    1.00   0.02  0.00  0.00  0.98  0.00  0.00  0.00  0.91  0.00
  WS02006110WS02006113    1.00   0.00  0.01  0.00  0.98  0.00  0.00  0.00  0.00  0.00
  WS02006109WS02006110    1.00   0.00  0.00  0.00  0.99  0.00  0.00  0.00  0.00  0.00
  WS02004411WS02004412    1.00   0.04  0.00  0.00  0.96  0.00  0.00  0.00  0.00  0.00
  WS02004401WS02004402    1.00   0.03  0.00  0.00  0.97  0.00  0.00  0.00  0.00  0.00
  WS02004413WS02003067    1.00   0.04  0.00  0.00  0.00  0.00  0.95  0.00  0.00  0.00
  WS02004412WS02004413    1.00   0.04  0.00  0.00  0.96  0.00  0.00  0.00  0.00  0.00
  WS02004410WS02004411    1.00   0.04  0.00  0.00  0.96  0.00  0.00  0.00  0.00  0.00
  WS02004409WS02004410    1.00   0.04  0.00  0.00  0.96  0.00  0.00  0.00  0.00  0.00
  WS02004407WS02004409    1.00   0.04  0.00  0.00  0.96  0.00  0.00  0.00  0.87  0.00
  WS02004406WS02004407    1.00   0.00  0.04  0.00  0.96  0.00  0.00  0.00  0.00  0.00
  WS02004405WS02004406    1.00   0.00  0.00  0.00  1.00  0.00  0.00  0.00  0.04  0.00
  WS02004404WS02004405    1.00   0.00  0.00  0.00  1.00  0.00  0.00  0.00  0.00  0.00
  WS02004403WS02004404    1.00   0.00  0.03  0.00  0.97  0.00  0.00  0.00  0.00  0.00
  WS02004402WS02004403    1.00   0.03  0.00  0.00  0.97  0.00  0.00  0.00  0.00  0.00
  WS02004139WS02001211    1.00   0.00  0.00  0.00  1.00  0.00  0.00  0.00  0.00  0.00
  WS02004138WS02004139    1.00   0.00  0.00  0.00  1.00  0.00  0.00  0.00  1.00  0.00
  WS02003067WS02003066    1.00   0.05  0.00  0.00  0.95  0.00  0.00  0.00  0.00  0.00
  WS02001213WS02003059    1.00   0.00  0.00  0.00  1.00  0.00  0.00  0.00  0.00  0.00
  WS02001212WS02001213    1.00   0.00  0.00  0.00  0.89  0.00  0.11  0.00  0.00  0.00
  WS02001211WS02001212    1.00   0.00  0.00  0.00  1.00  0.00  0.00  0.00  0.00  0.00
  WS02003072WS02003073    1.00   0.00  0.00  0.00  0.00  0.00  0.00  1.00  0.00  0.00
  WS02003069WS02003072    1.00   0.00  0.00  0.00  1.00  0.00  0.00  0.00  0.14  0.00
  WS02003060WS02003069    1.00   0.00  0.00  0.00  0.98  0.02  0.00  0.00  0.11  0.00
  WS02003059WS02003060    1.00   0.00  0.00  0.00  1.00  0.00  0.00  0.00  0.00  0.00
  HS02004901HS02004770    1.00   0.04  0.00  0.00  0.96  0.00  0.00  0.00  0.01  0.00
  HS02004876HS02004881    1.00   0.01  0.00  0.00  0.94  0.05  0.00  0.00  0.00  0.00
  HS02004870HS02004876    1.00   0.00  0.00  0.00  1.00  0.00  0.00  0.00  0.95  0.00
  HS02004842HS02004848    1.00   0.00  0.05  0.00  0.95  0.00  0.00  0.00  0.63  0.00
  HS02004837HS02004842    1.00   0.00  0.00  0.00  1.00  0.00  0.00  0.00  0.11  0.00
  HS02004830HS02004837    1.00   0.00  0.00  0.00  1.00  0.00  0.00  0.00  0.99  0.00
  HS02004824HS02004830    1.00   0.00  0.00  0.00  1.00  0.00  0.00  0.00  0.00  0.00
  HS02004817HS02004824    1.00   0.00  0.00  0.00  1.00  0.00  0.00  0.00  1.00  0.00
  HS02004770HS02004777    1.00   0.00  0.04  0.00  0.96  0.00  0.00  0.00  0.05  0.00
  HS02004799HS02004480    1.00   0.00  0.01  0.00  0.94  0.00  0.05  0.00  0.00  0.00
  HS02004792HS02004799    1.00   0.00  0.00  0.00  1.00  0.00  0.00  0.00  0.98  0.00
  HS02004788HS02004792    1.00   0.00  0.00  0.00  1.00  0.00  0.00  0.00  0.98  0.00
  HS02004785HS02004788    1.00   0.00  0.00  0.00  1.00  0.00  0.00  0.00  0.00  0.00
  HS02004777HS02004785    1.00   0.00  0.00  0.00  1.00  0.00  0.00  0.00  0.17  0.00
  HS02004480HS02004478    1.00   0.05  0.00  0.00  0.70  0.00  0.00  0.25  0.00  0.00
  HS02004479HS02004480    1.00   0.01  0.00  0.00  0.99  0.00  0.00  0.00  0.14  0.00
  HS02004862HS02004870    1.00   0.00  0.00  0.00  1.00  0.00  0.00  0.00  0.05  0.00
  HS02004848HS02004852    1.00   0.05  0.00  0.00  0.95  0.00  0.00  0.00  0.73  0.00
  HS02004856HS02004862    1.00   0.00  0.07  0.00  0.93  0.00  0.00  0.00  0.78  0.00
  HS02004852HS02004856    1.00   0.04  0.01  0.00  0.95  0.00  0.00  0.00  0.82  0.00
  HS02004802HS02004478    1.00   0.05  0.01  0.00  0.95  0.00  0.00  0.00  0.01  0.00
  HS02004478WS02006287    1.00   0.06  0.00  0.00  0.83  0.12  0.00  0.00  0.72  0.00
  HS02004817HS02004807    1.00   0.00  0.05  0.00  0.95  0.00  0.00  0.00  0.00  0.00
  HS02004807HS02004802    1.00   0.05  0.00  0.00  0.95  0.00  0.00  0.00  0.01  0.00
  YS02001759YS02001757    1.00   0.00  0.00  0.00  1.00  0.00  0.00  0.00  0.18  0.00
  YS02001762YS02001759    1.00   0.00  0.00  0.00  1.00  0.00  0.00  0.00  0.04  0.00
  YS02001765YS02001762    1.00   0.00  0.00  0.00  1.00  0.00  0.00  0.00  0.19  0.00
  YS02001770YS02001767    1.00   0.00  0.00  0.00  1.00  0.00  0.00  0.00  0.00  0.00
  YS02001774YS02001770    1.00   0.00  0.05  0.00  0.95  0.00  0.00  0.00  0.05  0.00
  YS02001779YS02001774    1.00   0.00  0.00  0.00  1.00  0.00  0.00  0.00  0.24  0.00
  YS02001649YS02001757    1.00   0.00  0.00  0.00  1.00  0.00  0.00  0.00  0.18  0.00
  YS02001767YS02001765    1.00   0.00  0.00  0.00  1.00  0.00  0.00  0.00  0.00  0.00
  YS02006561YS02001783    1.00   0.08  0.00  0.00  0.10  0.82  0.00  0.00  0.56  0.00
  YS02001783YS02001784    1.00   0.00  0.08  0.00  0.92  0.00  0.00  0.00  0.00  0.00
  YS02001784YS02001785    1.00   0.00  0.00  0.00  1.00  0.00  0.00  0.00  0.22  0.00
  YS02001788YS02001790    1.00   0.00  0.00  0.00  0.20  0.80  0.00  0.00  0.56  0.00
  YS02001790YS02001791    1.00   0.00  0.00  0.00  0.13  0.87  0.00  0.00  0.56  0.00
  YS02001791YS02001793    1.00   0.00  0.00  0.00  0.20  0.80  0.00  0.00  0.05  0.00
  YS02001910YS02001907    1.00   0.00  0.00  0.00  0.99  0.00  0.00  0.01  0.13  0.00
  YS02001786YS02001788    1.00   0.00  0.00  0.00  0.19  0.81  0.00  0.00  0.00  0.00
  YS02001915YS02001910    1.00   0.00  0.00  0.00  1.00  0.00  0.00  0.00  0.21  0.00
  YS02001918YS02001915    1.00   0.00  0.00  0.00  0.99  0.00  0.00  0.00  0.64  0.00
  YS02001923YS02001920    1.00   0.00  0.00  0.00  1.00  0.00  0.00  0.00  1.00  0.00
  YS02001926YS02001923    1.00   0.00  0.02  0.00  0.00  0.00  0.98  0.00  0.00  0.00
  YS02001929YS02001926    1.00   0.00  0.04  0.00  0.96  0.00  0.00  0.00  0.87  0.00
  YS02001920YS02001918    1.00   0.00  0.00  0.00  1.00  0.00  0.00  0.00  0.00  0.00
  YS02001629YS02163301    1.00   0.06  0.00  0.00  0.93  0.00  0.00  0.00  0.00  0.00
  YS02001619YS02001622    1.00   0.04  0.00  0.00  0.96  0.00  0.00  0.00  0.00  0.00
  YS02001622YS02001625    1.00   0.04  0.00  0.00  0.96  0.00  0.00  0.00  0.10  0.00
  YS02001625YS02001629    1.00   0.05  0.03  0.00  0.91  0.00  0.02  0.00  0.00  0.00
  YS02163301YS02001633    1.00   0.00  0.06  0.00  0.94  0.00  0.00  0.00  0.00  0.00
  YS02163601YS02164001    1.00   0.00  0.02  0.00  0.98  0.00  0.00  0.00  0.00  0.00
  YS02164001YS02001641    1.00   0.00  0.02  0.00  0.98  0.00  0.00  0.00  0.07  0.00
  YS02001641YS02001644    1.00   0.00  0.00  0.00  1.00  0.00  0.00  0.00  0.00  0.00
  YS02001647YS02001649    1.00   0.00  0.07  0.00  0.93  0.00  0.00  0.00  0.01  0.00
  YS02006553YS02006556    1.00   0.00  0.00  0.00  1.00  0.00  0.00  0.00  0.03  0.00
  YS02006556YS02006558    1.00   0.00  0.00  0.00  1.00  0.00  0.00  0.00  0.00  0.00
  YSB6556YSB1171          1.00   0.01  0.03  0.00  0.96  0.00  0.00  0.00  0.00  0.00
  YS02001907YS02006553    1.00   0.00  0.01  0.00  0.99  0.00  0.00  0.00  0.00  0.00
  YS02006558YS02006561    1.00   0.08  0.00  0.00  0.00  0.92  0.00  0.00  0.55  0.00
  YS02001633YS02163601    1.00   0.00  0.00  0.00  1.00  0.00  0.00  0.00  0.18  0.00
  YS02001644YS02001647    1.00   0.00  0.07  0.00  0.93  0.00  0.00  0.00  0.00  0.00
  YS02001745YS02001748    1.00   0.00  0.00  0.00  0.89  0.00  0.00  0.11  0.03  0.00
  YS02001748YS02001751    1.00   0.00  0.00  0.00  0.96  0.04  0.00  0.00  0.16  0.00
  YS02001751YS02001754    1.00   0.00  0.00  0.00  0.92  0.00  0.00  0.08  0.02  0.00
  YS02001754YS02001757    1.00   0.00  0.00  0.00  1.00  0.00  0.00  0.00  0.23  0.00
  YS02001882YS02001884    1.00   0.06  0.00  0.00  0.94  0.00  0.00  0.00  0.00  0.00
  YS02001884YS02001887    1.00   0.02  0.02  0.00  0.96  0.00  0.00  0.00  0.00  0.00
  YS02001890YS02001895    1.00   0.00  0.06  0.00  0.93  0.00  0.00  0.00  0.00  0.00
  YS02001895YS02001898    1.00   0.07  0.00  0.00  0.92  0.00  0.01  0.00  0.00  0.00
  YS02001898YS02001901    1.00   0.06  0.00  0.00  0.93  0.00  0.00  0.00  0.02  0.00
  YS02001901YS02001904    1.00   0.06  0.00  0.00  0.94  0.00  0.00  0.00  0.00  0.00
  YS02001904YS02001907    1.00   0.00  0.06  0.00  0.94  0.00  0.00  0.00  0.00  0.00
  YS02001887YS02001890    1.00   0.00  0.00  0.00  0.99  0.00  0.01  0.00  0.00  0.00
  YS02001652YS02001649    1.00   0.00  0.00  0.00  1.00  0.00  0.00  0.00  0.21  0.00
  YS02001655YS02001652    1.00   0.00  0.00  0.00  0.92  0.00  0.00  0.08  0.02  0.00
  YS02001658YS02001655    1.00   0.00  0.06  0.00  0.91  0.04  0.00  0.00  0.07  0.00
  YS02001661YS02001658    1.00   0.06  0.00  0.00  0.89  0.05  0.00  0.00  0.03  0.00
  YS02001664YS02001661    1.00   0.04  0.00  0.00  0.90  0.05  0.00  0.00  0.22  0.00
  YSB1154YSB6556          1.00   0.04  0.00  0.00  0.96  0.00  0.00  0.00  0.02  0.00
  YSB1174YSB1171          1.00   0.01  0.01  0.00  0.97  0.00  0.00  0.00  0.00  0.00
  YSB1171HS02004479       1.00   0.01  0.00  0.00  0.98  0.00  0.00  0.00  0.13  0.00
  HS02004881HS02006253    1.00   0.02  0.00  0.00  0.40  0.03  0.00  0.55  0.25  0.00
  YS02001793JiankangQianchi    1.00   0.00  0.00  0.00  0.68  0.32  0.00  0.00  0.55  0.00
  YS02001757CaochengTiaoxuchi    1.00   0.00  0.09  0.00  0.89  0.02  0.00  0.00  0.00  0.00
  WSF200WS02003060        1.00   0.00  0.01  0.00  0.99  0.01  0.00  0.00  0.66  0.00
  1                       1.00   0.00  0.00  0.00  0.00  1.00  0.00  0.00  0.48  0.00
  
  
  *************************
  Conduit Surcharge Summary
  *************************
  
  ----------------------------------------------------------------------------
                                                           Hours        Hours 
                         --------- Hours Full --------   Above Full   Capacity
  Conduit                Both Ends  Upstream  Dnstream   Normal Flow   Limited
  ----------------------------------------------------------------------------
  WS02006229WS02006228        1.69      1.83      1.69      3.07         1.69
  WS02006256WS02006235        5.17      5.17      6.55      3.78         0.01
  WS02006253WS02006251        0.35      0.35      0.37      0.01         0.03
  WS02006252WS02006251        0.38      0.38      0.74      0.64         0.01
  WS02006251WS02006249        0.36      0.36      0.39      0.27         0.13
  WS02006249WS02006248        0.36      0.36      0.39      1.12         0.01
  WS02006248WS02006247        0.39      0.39      0.45      0.01         0.01
  WS02006247WS02006245        0.45      0.46      0.45      1.93         0.44
  WS02006245WS02006243        0.46      0.46      0.50      0.19         0.15
  WS02006243WS02006242        0.56      0.56      0.80      0.01         0.01
  WS02006242WS02006240        0.72      0.72      0.98      0.54         0.01
  WS02006240WS02006239        0.81      0.81      0.93      0.19         0.20
  WS02006239WS02006238        1.08      1.08      1.17      0.19         0.22
  WS02006238WS02006235        1.15      1.15      1.32      0.01         0.01
  WS02006235WS02006234        0.97      0.97      1.12      5.03         0.01
  WS02006234WS02006232        1.05      1.05      1.44      0.17         0.20
  WS02006232WS02006231        0.57      0.57      1.44      0.27         0.01
  WS02006231WS02006230        0.35      0.35      0.61      5.31         0.01
  WS02006230WS02006229        2.55      2.83      2.55      5.64         2.54
  WS02006228WS02006109        1.74      2.21      1.74      3.98         1.74
  WS02006112WS02006115        0.01      0.01      0.62      0.01         0.01
  WS02006111WS02006112        0.01      0.01      3.31      0.01         0.01
  WS02006110WS02006113        0.01      0.01      2.02      0.01         0.01
  WS02006109WS02006110        0.52      0.52      2.22      0.53         0.01
  WS02004406WS02004407        0.01      0.01      0.01      0.01         0.01
  WS02004405WS02004406        0.01      0.14      0.01      0.56         0.01
  WS02004404WS02004405        0.14      0.18      0.14      5.38         0.14
  WS02004403WS02004404        0.01      0.01      0.18      0.01         0.01
  WS02003072WS02003073        0.01      0.01      0.01      5.61         0.01
  HS02004480HS02004478        0.01      0.01      0.01      0.30         0.01
  YS02001759YS02001757        5.64      5.64      5.68      0.01         0.01
  YS02001762YS02001759        5.63      5.63      5.64      0.01         0.01
  YS02001765YS02001762        5.62      5.62      5.63      0.01         0.01
  YS02001770YS02001767        5.62      5.62      5.62      0.01         0.70
  YS02001774YS02001770        5.60      5.60      5.63      0.01         0.01
  YS02001779YS02001774        5.44      5.44      5.63      0.01         0.01
  YS02001649YS02001757        5.63      5.63      5.68      0.01         0.01
  YS02001767YS02001765        5.62      5.62      5.62      0.01         0.01
  YS02006561YS02001783        0.01      0.01      0.27      0.01         0.01
  YS02001783YS02001784        0.27      0.27      0.27      0.01         0.08
  YS02001784YS02001785        0.26      0.27      0.26      1.41         0.26
  YS02001788YS02001790        0.26      0.26      0.86      0.01         0.01
  YS02001790YS02001791        0.86      0.86      0.95      0.01         0.01
  YS02001791YS02001793        0.95      0.95      1.21      0.01         0.01
  YS02001910YS02001907        0.01      0.01      0.90      0.01         0.01
  YS02001786YS02001788        0.25      0.26      0.26      1.07         0.25
  YS02001629YS02163301        5.60      5.60      5.60      0.01         0.01
  YS02001619YS02001622        5.23      5.23      5.31      0.01         0.01
  YS02001622YS02001625        5.31      5.31      5.59      0.01         0.01
  YS02001625YS02001629        5.25      5.25      5.59      0.01         0.01
  YS02163301YS02001633        5.60      5.60      5.62      0.01         0.01
  YS02163601YS02164001        5.62      5.62      5.64      0.01         0.01
  YS02164001YS02001641        5.62      5.62      5.62      0.01         0.01
  YS02001641YS02001644        5.62      5.62      5.62      0.11         0.83
  YS02001647YS02001649        5.57      5.57      5.63      0.01         0.01
  YS02006553YS02006556        0.01      0.01      0.97      0.01         0.01
  YS02006556YS02006558        0.53      0.53      1.03      0.01         0.01
  YS02001907YS02006553        1.43      1.43      1.60      0.01         0.01
  YS02006558YS02006561        0.01      0.01      0.01      1.28         0.01
  YS02001633YS02163601        5.61      5.61      5.64      0.01         0.01
  YS02001644YS02001647        5.57      5.57      5.62      0.01         0.01
  YS02001745YS02001748        0.01      0.01      4.95      0.01         0.01
  YS02001748YS02001751        5.01      5.01      5.24      0.01         0.01
  YS02001751YS02001754        5.24      5.24      5.45      0.01         0.01
  YS02001754YS02001757        5.52      5.52      5.68      0.01         0.01
  YS02001904YS02001907        0.01      0.01      1.00      0.01         0.01
  YS02001652YS02001649        5.58      5.58      5.63      0.01         0.01
  YS02001655YS02001652        5.27      5.27      5.51      0.01         0.01
  YS02001658YS02001655        4.99      4.99      5.27      0.01         0.01
  YS02001661YS02001658        0.09      0.09      4.99      0.01         0.01
  YS02001664YS02001661        0.01      0.01      0.63      0.01         0.01
  HS02004881HS02006253        0.01      0.01      0.15      0.01         0.01
  YS02001793JiankangQianchi        1.14      1.14      4.32      0.01         0.01
  YS02001757CaochengTiaoxuchi        4.95      4.95      5.68      0.01         0.01
  
  
  ***************
  Pumping Summary
  ***************
  
  ---------------------------------------------------------------------------------------------------------
                                                  Min       Avg       Max     Total     Power    % Time Off
                        Percent   Number of      Flow      Flow      Flow    Volume     Usage    Pump Curve
  Pump                 Utilized   Start-Ups       LPS       LPS       LPS  10^6 ltr     Kw-hr    Low   High
  ---------------------------------------------------------------------------------------------------------
  CC-Pump-1               42.55           4      0.00    118.91    200.00     1.320      1.06    0.0    0.0
  CC-Pump-2               19.13           4      0.00    107.41    200.00     0.600      0.67    0.0    0.0
  JK-Pump-1               53.17           6      0.00    187.08    300.00     2.623     47.41    0.0    0.0
  JK-Pump-2               42.54           5      0.00    342.51    683.00     3.781     65.39    0.0   94.9
  XR-Pump-1               95.74           3      0.00     93.17     95.00     2.451     34.27    0.0    0.0
  XR-Pump-2               95.74           3      0.00     93.17     95.00     2.451     34.27    0.0    0.0
  XR-Pump-3               95.74           3      0.00     92.28     95.00     2.394     32.96    0.0    0.0
  XR-Pump-4               95.74           3      0.00     92.28     95.00     2.394     32.96    0.0    0.0
  
  
  ***************************
  Link Pollutant Load Summary
  ***************************
  
  ------------------------------------------------------------------------------------------
                                 COD            SS            TN            TP         NH4-N
  Link                            kg            kg            kg            kg            kg
  ------------------------------------------------------------------------------------------
  WS02003066WSF200           477.607       859.484        15.030         1.435         8.236
  WS02006287WS02006284       182.613       333.926         7.681         0.826         4.425
  WS02006284WS02006280       183.032       334.604         7.720         0.830         4.450
  WS02006280WS02006229       183.011       334.561         7.720         0.830         4.450
  WS02006229WS02006228       482.314       868.244        14.661         1.374         7.974
  WS02006256WS02006235       121.781       212.440         3.183         0.271         1.676
  WS02006253WS02006251        35.621        67.783         0.844         0.067         0.428
  WS02006252WS02006251       155.441       277.424         3.237         0.232         1.584
  WS02006251WS02006249       183.439       331.673         3.928         0.288         1.939
  WS02006249WS02006248       181.217       327.700         3.881         0.285         1.916
  WS02006248WS02006247       181.592       328.380         3.894         0.286         1.923
  WS02006247WS02006245       181.766       328.666         3.901         0.287         1.927
  WS02006245WS02006243       181.454       328.135         3.893         0.286         1.923
  WS02006243WS02006242       182.254       329.534         3.917         0.288         1.936
  WS02006242WS02006240       183.902       332.520         3.940         0.289         1.945
  WS02006240WS02006239       186.380       336.893         4.009         0.295         1.982
  WS02006239WS02006238       189.352       341.768         4.112         0.305         2.040
  WS02006238WS02006235       190.513       343.429         4.161         0.310         2.068
  WS02006235WS02006234       300.111       535.016         6.979         0.548         3.546
  WS02006234WS02006232       300.160       535.081         6.983         0.549         3.549
  WS02006232WS02006231       300.002       534.823         6.979         0.548         3.547
  WS02006231WS02006230       300.219       535.283         6.990         0.550         3.553
  WS02006230WS02006229       302.293       539.235         7.051         0.555         3.586
  WS02006228WS02006109       481.899       867.522        14.647         1.373         7.966
  WS02006116WS02004401       490.589       882.349        15.351         1.461         8.402
  WS02006115WS02006116       491.575       884.085        15.375         1.463         8.414
  WS02006113WS02006111       488.306       877.544        15.359         1.463         8.415
  WS02006112WS02006115       492.717       886.078        15.423         1.468         8.442
  WS02006111WS02006112       488.032       877.038        15.353         1.463         8.412
  WS02006110WS02006113       488.836       878.467        15.385         1.466         8.430
  WS02006109WS02006110       489.990       880.420        15.453         1.474         8.471
  WS02004411WS02004412       481.745       866.678        15.174         1.449         8.317
  WS02004401WS02004402       489.421       880.303        15.309         1.457         8.378
  WS02004413WS02003067       478.370       860.835        15.045         1.436         8.244
  WS02004412WS02004413       480.318       864.181        15.132         1.445         8.294
  WS02004410WS02004411       482.886       868.679        15.204         1.452         8.332
  WS02004409WS02004410       484.056       870.724        15.240         1.455         8.352
  WS02004407WS02004409       484.935       872.269        15.259         1.456         8.361
  WS02004406WS02004407       485.091       872.545        15.252         1.455         8.356
  WS02004405WS02004406       487.015       875.838        15.344         1.465         8.410
  WS02004404WS02004405       487.800       877.291        15.328         1.462         8.397
  WS02004403WS02004404       487.361       876.693        15.242         1.450         8.342
  WS02004402WS02004403       488.391       878.496        15.280         1.454         8.363
  WS02004139WS02001211      1504.790      2434.518       134.674        16.661        83.660
  WS02004138WS02004139      1502.863      2431.435       134.489        16.638        83.545
  WS02003067WS02003066       477.874       859.944        15.040         1.436         8.242
  WS02001213WS02003059      1554.728      2514.408       139.472        17.261        86.659
  WS02001212WS02001213      1555.337      2515.392       139.528        17.268        86.694
  WS02001211WS02001212      1555.996      2516.447       139.590        17.276        86.733
  WS02003072WS02003073      2143.230      3550.820       165.383        20.060       101.705
  WS02003069WS02003072      2146.527      3556.221       165.640        20.091       101.863
  WS02003060WS02003069      2146.903      3556.991       165.599        20.085       101.835
  WS02003059WS02003060      1556.143      2516.661       139.613        17.279        86.748
  HS02004901HS02004770         6.219        11.870         0.117         0.009         0.055
  HS02004876HS02004881        22.807        44.135         0.550         0.043         0.278
  HS02004870HS02004876        17.275        33.280         0.455         0.037         0.234
  HS02004842HS02004848         3.078         5.687         0.065         0.004         0.030
  HS02004837HS02004842         7.684        13.006         0.533         0.063         0.324
  HS02004830HS02004837        56.504        94.983         4.380         0.533         2.700
  HS02004824HS02004830        57.254        96.185         4.451         0.542         2.745
  HS02004817HS02004824        69.890       120.610         4.734         0.562         2.885
  HS02004770HS02004777        23.511        45.240         0.487         0.033         0.224
  HS02004799HS02004480        84.213       155.874         2.741         0.268         1.494
  HS02004792HS02004799        76.822       140.917         2.652         0.266         1.460
  HS02004788HS02004792        46.101        84.259         1.926         0.203         1.094
  HS02004785HS02004788        25.012        47.657         0.640         0.052         0.319
  HS02004777HS02004785        24.455        46.751         0.590         0.046         0.289
  HS02004480HS02004478       105.331       197.393         3.058         0.289         1.637
  HS02004479HS02004480        25.348        48.249         0.719         0.071         0.394
  HS02004862HS02004870        12.846        24.261         0.368         0.032         0.192
  HS02004848HS02004852         4.524         8.494         0.094         0.006         0.043
  HS02004856HS02004862         8.229        15.958         0.165         0.011         0.077
  HS02004852HS02004856         4.519         8.485         0.094         0.006         0.043
  HS02004802HS02004478        77.607       137.080         4.650         0.540         2.805
  HS02004478WS02006287       182.799       334.244         7.695         0.827         4.434
  HS02004817HS02004807        68.533       118.438         4.606         0.546         2.805
  HS02004807HS02004802        78.235       138.078         4.711         0.548         2.843
  YS02001759YS02001757       238.179       422.586         4.966         0.343         2.442
  YS02001762YS02001759       117.967       210.873         2.669         0.189         1.336
  YS02001765YS02001762       117.126       209.295         2.674         0.191         1.341
  YS02001770YS02001767       114.522       205.053         2.367         0.151         1.146
  YS02001774YS02001770        17.114        30.485         0.359         0.023         0.175
  YS02001779YS02001774        16.272        28.822         0.447         0.037         0.237
  YS02001649YS02001757       266.784       462.142         5.526         0.387         2.664
  YS02001767YS02001765       116.927       208.886         2.682         0.192         1.347
  YS02006561YS02001783       503.449       886.930        11.728         0.928         5.994
  YS02001783YS02001784       503.381       886.837        11.725         0.927         5.992
  YS02001784YS02001785       510.758       898.665        12.439         1.017         6.438
  YS02001788YS02001790       511.428       899.767        12.512         1.026         6.485
  YS02001790YS02001791       512.490       901.491        12.612         1.039         6.547
  YS02001791YS02001793       512.404       901.355        12.607         1.038         6.544
  YS02001910YS02001907       166.393       287.183         5.066         0.440         2.731
  YS02001786YS02001788       510.993       899.057        12.467         1.020         6.456
  YS02001915YS02001910       166.330       287.051         5.016         0.433         2.698
  YS02001918YS02001915        80.613       132.627         3.173         0.329         1.817
  YS02001923YS02001920        60.687       100.793         1.225         0.085         0.598
  YS02001926YS02001923        60.344       100.248         1.187         0.080         0.574
  YS02001929YS02001926        60.105        99.855         1.156         0.076         0.554
  YS02001920YS02001918        80.596       132.649         3.144         0.325         1.798
  YS02001629YS02163301        68.393       117.658         1.462         0.093         0.680
  YS02001619YS02001622        70.634       121.063         1.517         0.096         0.703
  YS02001622YS02001625        69.549       119.386         1.491         0.094         0.691
  YS02001625YS02001629        68.542       117.901         1.466         0.093         0.680
  YS02163301YS02001633        69.790       120.147         1.486         0.095         0.691
  YS02163601YS02164001       188.607       322.616         3.872         0.272         1.855
  YS02164001YS02001641       188.406       322.293         3.855         0.270         1.845
  YS02001641YS02001644       189.652       324.406         3.870         0.270         1.851
  YS02001647YS02001649       236.363       407.050         4.880         0.340         2.357
  YS02006553YS02006556       363.084       637.360         8.792         0.721         4.561
  YS02006556YS02006558       363.081       637.352         8.760         0.716         4.539
  YSB6556YSB1171              13.901        26.630         0.323         0.029         0.170
  YS02001907YS02006553       363.138       637.475         8.795         0.721         4.563
  YS02006558YS02006561       503.492       887.000        11.727         0.927         5.993
  YS02001633YS02163601       189.272       323.638         3.853         0.268         1.839
  YS02001644YS02001647       239.870       413.297         4.930         0.343         2.379
  YS02001745YS02001748       101.681       178.464         2.391         0.166         1.198
  YS02001748YS02001751       100.988       177.137         2.460         0.177         1.246
  YS02001751YS02001754       100.125       175.755         2.444         0.176         1.239
  YS02001754YS02001757       100.973       177.058         2.612         0.199         1.348
  YS02001882YS02001884         2.226         3.822         0.048         0.004         0.025
  YS02001884YS02001887         5.803        10.174         0.122         0.010         0.062
  YS02001890YS02001895       197.954       352.061         3.752         0.283         1.842
  YS02001895YS02001898       197.802       351.844         3.745         0.282         1.839
  YS02001898YS02001901       197.662       351.640         3.742         0.282         1.837
  YS02001901YS02001904       197.664       351.674         3.760         0.285         1.849
  YS02001904YS02001907       198.283       352.698         3.845         0.295         1.903
  YS02001887YS02001890       198.821       353.401         3.814         0.290         1.880
  YS02001652YS02001649        65.954       115.556         1.426         0.104         0.672
  YS02001655YS02001652        66.972       117.189         1.452         0.105         0.684
  YS02001658YS02001655        66.730       116.752         1.373         0.094         0.632
  YS02001661YS02001658        73.249       128.335         1.506         0.104         0.693
  YS02001664YS02001661        87.733       152.382         1.821         0.125         0.837
  YSB1154YSB6556              13.407        25.838         0.263         0.022         0.132
  YSB1174YSB1171               9.582        18.603         0.221         0.020         0.115
  YSB1171HS02004479           25.259        48.113         0.711         0.070         0.389
  HS02004881HS02006253        25.761        50.046         0.603         0.046         0.303
  YS02001793JiankangQianchi       512.761       901.880        12.578         1.033         6.523
  YS02001757CaochengTiaoxuchi       442.205       783.046         9.304         0.663         4.555
  WSF200WS02003060           477.374       859.047        15.037         1.436         8.242
  1                         2151.476      3563.649       166.343        20.182       102.311
  CC-Pump-1                  107.121       191.312         2.222         0.159         1.086
  CC-Pump-2                   48.125        85.797         1.002         0.072         0.490
  JK-Pump-1                  110.108       192.457         2.819         0.237         1.477
  JK-Pump-2                  217.240       384.668         5.243         0.428         2.711
  XR-Pump-1                  382.156       618.163        34.241         4.237        21.273
  XR-Pump-2                  382.156       618.163        34.241         4.237        21.273
  XR-Pump-3                  369.414       597.776        33.018         4.084        20.508
  XR-Pump-4                  369.414       597.776        33.018         4.084        20.508
  

  Analysis begun on:  Sun Jul 11 09:37:41 2021
  Analysis ended on:  Sun Jul 11 09:37:44 2021
  Total elapsed time: 00:00:03