
  EPA STORM WATER MANAGEMENT MODEL - VERSION 5.1 (Build 5.3.0.dev0)
  --------------------------------------------------------------

  WARNING 04: minimum elevation drop used for Conduit WS02004404WS02004405
  WARNING 03: negative offset ignored for Link YS02001904YS02001907
  
  *********************************************************
  NOTE: The summary statistics displayed in this report are
  based on results found at every computational time step,  
  not just on results from each reporting time step.
  *********************************************************
  
  ****************
  Analysis Options
  ****************
  Flow Units ............... LPS
  Process Models:
    Rainfall/Runoff ........ YES
    RDII ................... NO
    Snowmelt ............... NO
    Groundwater ............ NO
    Flow Routing ........... YES
    Ponding Allowed ........ NO
    Water Quality .......... YES
  Infiltration Method ...... HORTON
  Flow Routing Method ...... DYNWAVE
  Surcharge Method ......... EXTRAN
  Starting Date ............ 08/28/2015 08:00:00
  Ending Date .............. 08/28/2015 15:50:00
  Antecedent Dry Days ...... 8.0
  Report Time Step ......... 00:01:00
  Wet Time Step ............ 00:01:00
  Dry Time Step ............ 00:01:00
  Routing Time Step ........ 5.00 sec
  Variable Time Step ....... YES
  Maximum Trials ........... 8
  Number of Threads ........ 4
  Head Tolerance ........... 0.001500 m
  
  
  **************************        Volume         Depth
  Runoff Quantity Continuity     hectare-m            mm
  **************************     ---------       -------
  Total Precipitation ......         3.415         7.477
  Evaporation Loss .........         0.000         0.000
  Infiltration Loss ........         0.687         1.504
  Surface Runoff ...........         2.094         4.584
  Final Storage ............         0.636         1.392
  Continuity Error (%) .....        -0.021
  
  
  **************************           COD            SS            TN            TP         NH4-N
  Runoff Quality Continuity             kg            kg            kg            kg            kg
  **************************    ----------    ----------    ----------    ----------    ----------
  Initial Buildup ..........     41378.656     70582.865      1804.177       168.684      1032.807
  Surface Buildup ..........        17.052        25.700         2.867         0.264         1.689
  Wet Deposition ...........         0.000         0.000         0.000         0.000         0.000
  Sweeping Removal .........         0.000         0.000         0.000         0.000         0.000
  Infiltration Loss ........        44.102        80.176         0.849         0.058         0.401
  BMP Removal ..............         0.000         0.000         0.000         0.000         0.000
  Surface Runoff ...........      1452.111      2561.637        28.761         1.898        13.592
  Remaining Buildup ........     39899.008     67965.895      1777.423       166.991      1020.499
  Continuity Error (%) .....         0.001         0.001         0.001         0.000         0.000
  
  
  **************************        Volume        Volume
  Flow Routing Continuity        hectare-m      10^6 ltr
  **************************     ---------     ---------
  Dry Weather Inflow .......         0.616         6.165
  Wet Weather Inflow .......         2.093        20.926
  Groundwater Inflow .......         0.000         0.000
  RDII Inflow ..............         0.000         0.000
  External Inflow ..........         0.102         1.024
  External Outflow .........         1.648        16.477
  Flooding Loss ............         0.787         7.871
  Evaporation Loss .........         0.000         0.000
  Exfiltration Loss ........         0.000         0.000
  Initial Stored Volume ....         0.076         0.761
  Final Stored Volume ......         0.570         5.705
  Continuity Error (%) .....        -4.079
  
  
  **************************           COD            SS            TN            TP         NH4-N
  Quality Routing Continuity            kg            kg            kg            kg            kg
  **************************    ----------    ----------    ----------    ----------    ----------
  Dry Weather Inflow .......      1541.201      2465.922       147.955        18.494        92.472
  Wet Weather Inflow .......      1451.619      2560.816        28.751         1.898        13.587
  Groundwater Inflow .......         0.000         0.000         0.000         0.000         0.000
  RDII Inflow ..............         0.000         0.000         0.000         0.000         0.000
  External Inflow ..........       183.418       293.469        17.608         2.201        11.005
  External Outflow .........      2117.435      3504.295       163.110        19.778       100.297
  Flooding Loss ............       494.184       857.719        11.013         0.835         5.503
  Exfiltration Loss ........         0.000         0.000         0.000         0.000         0.000
  Mass Reacted .............         0.000         0.000         0.000         0.000         0.000
  Initial Stored Mass ......         0.000         0.000         0.000         0.000         0.000
  Final Stored Mass ........       359.449       616.991         9.541         0.793         4.975
  Continuity Error (%) .....         6.460         6.413         5.481         5.256         5.372
  
  
  *************************
  Highest Continuity Errors
  *************************
  Node HS02004842 (21.08%)
  Node YS02001774 (19.09%)
  Node JK-storage (-16.05%)
  Node YS02001884 (12.81%)
  Node YSB1171 (4.41%)
  
  
  ***************************
  Time-Step Critical Elements
  ***************************
  Link WS02006252WS02006251 (58.57%)
  Link YS02006556YS02006558 (12.10%)
  Link WS02006238WS02006235 (8.51%)
  Link WS02006280WS02006229 (5.69%)
  Link YS02001793JiankangQianchi (5.55%)
  
  
  ********************************
  Highest Flow Instability Indexes
  ********************************
  Link WS02006113WS02006111 (45)
  Link YS02163301YS02001633 (33)
  Link YS02001629YS02163301 (32)
  Link YS02001619YS02001622 (32)
  Link YS02163601YS02164001 (32)
  
  
  *************************
  Routing Time Step Summary
  *************************
  Minimum Time Step           :     0.50 sec
  Average Time Step           :     1.34 sec
  Maximum Time Step           :     5.00 sec
  Percent in Steady State     :    -0.00
  Average Iterations per Step :     4.36
  Percent Not Converging      :    22.61
  
  
  ***************************
  Subcatchment Runoff Summary
  ***************************
  
  ------------------------------------------------------------------------------------------------------------------------------
                            Total      Total      Total      Total     Imperv       Perv      Total       Total     Peak  Runoff
                           Precip      Runon       Evap      Infil     Runoff     Runoff     Runoff      Runoff   Runoff   Coeff
  Subcatchment                 mm         mm         mm         mm         mm         mm         mm    10^6 ltr      LPS
  ------------------------------------------------------------------------------------------------------------------------------
  sub0                       7.48       0.00       0.00       0.46       6.91       0.06       6.97        0.01     2.34   0.932
  sub1                       7.48       0.00       0.00       0.77       6.57       0.05       6.62        0.04    13.82   0.885
  sub2                       7.48       0.00       0.00       2.72       4.63       0.05       4.68        0.04    12.48   0.625
  sub3                       7.48       0.00       0.00       2.73       4.59       0.03       4.63        0.10    26.20   0.619
  sub4                       7.48       0.00       0.00       0.79       6.42       0.03       6.45        0.13    29.73   0.862
  sub5                       7.48       0.00       0.00       0.48       6.86       0.04       6.90        0.08    24.56   0.923
  sub7                       7.48       0.00       0.00       0.61       6.74       0.06       6.80        0.02     8.29   0.910
  sub8                       7.48       0.00       0.00       0.62       6.73       0.05       6.79        0.04    14.89   0.908
  sub9                       7.48       0.00       0.00       0.62       6.73       0.05       6.79        0.03    11.09   0.907
  sub10                      7.48       0.00       0.00       0.55       6.79       0.05       6.84        0.08    24.34   0.915
  sub11                      7.48       0.00       0.00       0.55       6.81       0.05       6.86        0.08    27.85   0.918
  sub12                      7.48       0.00       0.00       0.89       6.46       0.08       6.54        0.06    22.41   0.875
  sub14                      7.48       0.00       0.00       0.62       6.73       0.05       6.78        0.06    21.73   0.907
  sub15                      7.48       0.00       0.00       2.17       5.17       0.07       5.24        0.09    29.70   0.701
  sub16                      7.48       0.00       0.00       2.36       4.97       0.10       5.08        0.05    20.05   0.679
  sub17                      7.48       0.00       0.00       2.29       5.04       0.10       5.14        0.04    16.33   0.688
  sub22                      7.48       0.00       0.00       3.14       4.22       0.08       4.30        0.27    95.18   0.575
  sub23                      7.48       0.00       0.00       2.68       4.67       0.08       4.75        0.23    80.64   0.636
  sub60                      7.48       0.00       0.00       0.89       5.04       0.01       5.04        1.53   153.67   0.674
  sub61                      7.48       0.00       0.00       1.26       5.23       0.01       5.23        1.61   193.14   0.700
  sub62                      7.48       0.00       0.00       0.59       5.65       0.01       5.66        1.74   197.22   0.757
  sub63                      7.48       0.00       0.00       2.16       4.60       0.01       4.61        1.40   180.34   0.617
  sub64                      7.48       0.00       0.00       1.12       4.82       0.01       4.83        1.47   145.96   0.646
  sub65                      7.48       0.00       0.00       0.97       4.90       0.01       4.90        1.51   148.09   0.656
  sub66                      7.48       0.00       0.00       2.16       4.17       0.01       4.17        1.28   133.87   0.558
  sub67                      7.48       0.00       0.00       0.59       6.06       0.01       6.07        1.87   253.26   0.812
  sub68                      7.48       0.00       0.00       1.04       5.52       0.01       5.53        1.70   213.55   0.740
  sub69                      7.48       0.00       0.00       1.11       5.81       0.02       5.83        1.36   211.81   0.779
  sub70                      7.48       5.95       0.00       4.49       7.54       0.08       7.62        1.74   179.74   0.567
  sub71                      7.48       0.00       0.00       0.59       5.46       0.01       5.47        1.29   137.58   0.732
  sub72                      7.48       0.00       0.00       0.52       4.13       0.00       4.14        0.84    66.94   0.553
  1                          7.48       7.41       0.00       1.33       8.05       1.64       9.69        2.28   177.84   0.651
  2                          7.48       0.00       0.00       2.93       1.74       0.62       2.36        0.94   130.52   0.315
  
  
  ****************************
  Subcatchment Washoff Summary
  ****************************
  
  ------------------------------------------------------------------------------------------
                                 COD            SS            TN            TP         NH4-N
  Subcatchment                    kg            kg            kg            kg            kg
  ------------------------------------------------------------------------------------------
  sub0                         1.317         2.530         0.022         0.002         0.011
  sub1                         5.321        10.352         0.099         0.007         0.047
  sub2                         3.050         5.713         0.066         0.004         0.030
  sub3                         7.387        13.652         0.157         0.010         0.072
  sub4                        11.619        22.464         0.233         0.014         0.111
  sub5                        12.311        23.656         0.215         0.016         0.104
  sub7                         2.804         5.565         0.052         0.003         0.025
  sub8                         4.188         8.475         0.083         0.005         0.040
  sub9                         3.568         7.123         0.069         0.004         0.033
  sub10                       10.174        19.810         0.184         0.013         0.089
  sub11                       10.058        19.862         0.186         0.013         0.089
  sub12                        8.516        16.554         0.151         0.011         0.073
  sub14                        7.603        15.034         0.143         0.009         0.069
  sub15                        9.065        17.101         0.175         0.013         0.081
  sub16                        5.815        10.989         0.110         0.008         0.051
  sub17                        5.340        10.001         0.098         0.008         0.046
  sub22                       26.958        49.807         0.514         0.038         0.238
  sub23                       16.311        31.250         0.352         0.023         0.160
  sub60                       93.150       163.193         1.929         0.113         0.922
  sub61                      117.673       205.854         2.239         0.148         1.074
  sub62                      123.481       219.826         2.485         0.151         1.189
  sub63                       87.759       151.509         1.832         0.125         0.841
  sub64                      112.878       190.402         2.123         0.150         1.008
  sub65                      115.667       195.939         2.193         0.152         1.043
  sub66                       66.950       114.094         1.447         0.091         0.670
  sub67                      186.213       329.841         3.349         0.240         1.613
  sub68                      131.588       233.025         2.581         0.168         1.227
  sub69                      122.560       220.836         2.330         0.159         1.108
  sub70                      188.640       338.735         3.868         0.261         1.794
  sub71                       81.456       146.096         1.746         0.097         0.833
  sub72                       56.811        93.979         1.095         0.072         0.525
  1                          111.422       201.643         2.350         0.159         1.075
  2                           15.657        26.297         0.484         0.029         0.203
  ------------------------------------------------------------------------------------------
  System                    1763.312      3121.207        34.959         2.318        16.494
  
  
  ******************
  Node Depth Summary
  ******************
  
  ---------------------------------------------------------------------------------
                                 Average  Maximum  Maximum  Time of Max    Reported
                                   Depth    Depth      HGL   Occurrence   Max Depth
  Node                 Type       Meters   Meters   Meters  days hr:min      Meters
  ---------------------------------------------------------------------------------
  WS02001211           JUNCTION     0.75     0.79     5.63     0  04:51        0.79
  WS02001212           JUNCTION     0.46     0.51     5.57     0  04:50        0.51
  WS02001213           JUNCTION     0.69     0.76     5.52     0  04:50        0.76
  WS02003069           JUNCTION     0.47     0.59     5.17     0  04:49        0.59
  WS02003072           JUNCTION     0.54     0.64     5.01     0  04:50        0.64
  WS02003073           JUNCTION     0.32     0.40     4.46     0  04:50        0.40
  WS02003060           JUNCTION     0.42     0.52     5.45     0  04:48        0.52
  WS02003066           JUNCTION     0.21     0.30     5.85     0  04:47        0.30
  WS02003059           JUNCTION     0.74     0.81     5.50     0  04:49        0.81
  WS02003067           JUNCTION     0.53     0.70     6.02     0  04:47        0.70
  WS02004401           JUNCTION     0.63     0.86     6.86     0  03:46        0.86
  WS02004402           JUNCTION     0.66     0.89     6.85     0  03:46        0.89
  WS02004403           JUNCTION     0.68     0.90     6.83     0  03:46        0.90
  WS02004404           JUNCTION     0.76     0.97     6.82     0  03:46        0.97
  WS02004406           JUNCTION     0.77     0.96     6.79     0  03:47        0.96
  WS02004409           JUNCTION     0.44     0.67     6.44     0  04:46        0.67
  WS02004410           JUNCTION     0.46     0.69     6.41     0  04:46        0.69
  WS02004411           JUNCTION     0.48     0.70     6.38     0  04:47        0.70
  WS02004412           JUNCTION     0.50     0.70     6.34     0  04:47        0.70
  WS02004413           JUNCTION     0.65     0.86     6.33     0  04:47        0.86
  WS02004405           JUNCTION     0.76     0.96     6.81     0  03:47        0.96
  WS02006109           JUNCTION     0.71     1.01     7.62     0  03:42        1.00
  WS02006110           JUNCTION     0.71     0.95     7.53     0  03:42        0.94
  WS02006111           JUNCTION     0.20     0.29     7.00     0  03:44        0.29
  WS02006112           JUNCTION     0.80     1.09     6.97     0  03:47        1.08
  WS02006113           JUNCTION     0.31     0.47     7.36     0  03:42        0.47
  WS02006115           JUNCTION     0.52     0.76     6.90     0  03:46        0.76
  WS02006116           JUNCTION     0.60     0.84     6.88     0  03:46        0.84
  WS02006230           JUNCTION     0.68     1.15     7.89     0  03:41        1.13
  WS02006231           JUNCTION     0.45     0.89     8.01     0  03:41        0.88
  WS02006232           JUNCTION     0.58     1.09     8.13     0  03:42        1.08
  WS02006234           JUNCTION     0.50     1.19     8.35     0  06:22        1.09
  WS02006235           JUNCTION     0.54     1.17     8.34     0  03:44        1.17
  WS02006238           JUNCTION     0.56     1.21     8.35     0  03:42        1.20
  WS02006240           JUNCTION     0.46     1.20     8.49     0  06:22        1.14
  WS02006242           JUNCTION     0.51     1.40     8.66     0  06:22        1.22
  WS02006243           JUNCTION     0.39     1.40     8.82     0  06:22        1.13
  WS02006245           JUNCTION     0.37     1.32     8.80     0  06:22        1.12
  WS02006247           JUNCTION     0.39     1.16     8.66     0  03:41        1.13
  WS02006248           JUNCTION     0.34     1.09     8.68     0  03:41        1.08
  WS02006249           JUNCTION     0.36     1.09     8.69     0  03:41        1.09
  WS02006239           JUNCTION     0.51     1.19     8.40     0  04:33        1.18
  WS02006251           JUNCTION     0.34     1.26     8.93     0  03:41        1.18
  WS02006252           JUNCTION     0.23     0.81     9.05     0  03:41        0.74
  WS02006253           JUNCTION     0.37     1.49     9.13     0  03:41        1.21
  WS02006256           JUNCTION     1.49     2.35     9.28     0  00:00        2.35
  WS02004138           JUNCTION     0.19     0.20     7.45     0  00:00        0.19
  WS02004139           JUNCTION     0.70     0.74     5.65     0  04:51        0.74
  WS02004407           JUNCTION     0.20     0.30     6.61     0  03:47        0.30
  WS02006228           JUNCTION     0.71     1.06     7.71     0  03:42        1.04
  WS02006229           JUNCTION     0.69     1.05     7.75     0  03:42        1.05
  WS02006280           JUNCTION     0.06     0.19     8.46     0  02:11        0.19
  WS02006284           JUNCTION     0.36     0.55     8.95     0  02:11        0.55
  WS02006287           JUNCTION     0.09     0.29     9.24     0  02:11        0.29
  WSF200               JUNCTION     0.19     0.31     5.54     0  04:47        0.31
  HS02004901           JUNCTION     0.12     0.29    10.11     0  02:09        0.29
  HS02004881           JUNCTION     0.01     0.04     9.06     0  02:11        0.04
  HS02004876           JUNCTION     0.04     0.12     9.15     0  02:11        0.12
  HS02004870           JUNCTION     0.01     0.06     9.35     0  02:11        0.06
  HS02004862           JUNCTION     0.02     0.07     9.46     0  02:12        0.07
  HS02004856           JUNCTION     0.08     0.12     9.55     0  02:12        0.12
  HS02004852           JUNCTION     0.01     0.04     9.56     0  02:12        0.04
  HS02004848           JUNCTION     0.01     0.04     9.64     0  02:11        0.04
  HS02004842           JUNCTION     0.33     0.37     9.64     0  02:11        0.37
  HS02004837           JUNCTION     0.03     0.06     9.64     0  02:11        0.06
  HS02004830           JUNCTION     0.04     0.08     9.55     0  02:11        0.08
  HS02004824           JUNCTION     0.02     0.06     9.46     0  02:14        0.06
  HS02004817           JUNCTION     0.44     0.59     9.44     0  02:12        0.59
  HS02004807           JUNCTION     0.12     0.27     9.44     0  02:12        0.27
  HS02004802           JUNCTION     0.16     0.30     9.43     0  02:11        0.30
  HS02004799           JUNCTION     0.11     0.34     9.55     0  02:10        0.34
  HS02004792           JUNCTION     0.03     0.14     9.67     0  02:09        0.14
  HS02004788           JUNCTION     0.02     0.11    10.00     0  02:10        0.11
  HS02004785           JUNCTION     0.04     0.18    10.08     0  02:10        0.18
  HS02004777           JUNCTION     0.14     0.31    10.11     0  02:09        0.31
  HS02004770           JUNCTION     0.11     0.28    10.11     0  02:09        0.28
  HS02004480           JUNCTION     0.07     0.27     9.51     0  02:10        0.27
  HS02004479           JUNCTION     0.11     0.31     9.51     0  02:10        0.31
  HS02004478           JUNCTION     0.06     0.18     9.41     0  02:11        0.18
  YS02001745           JUNCTION     0.69     0.86     8.38     0  03:31        0.86
  YS02001748           JUNCTION     1.08     1.31     8.39     0  03:31        1.30
  YS02001751           JUNCTION     1.26     1.63     8.51     0  02:40        1.50
  YS02001754           JUNCTION     1.51     1.81     8.41     0  03:15        1.79
  YS02001762           JUNCTION     1.71     2.02     8.42     0  03:16        2.00
  YS02001765           JUNCTION     1.66     1.97     8.42     0  03:16        1.94
  YS02001767           JUNCTION     1.63     1.93     8.42     0  04:30        1.90
  YS02001770           JUNCTION     1.62     1.92     8.42     0  04:30        1.89
  YS02001774           JUNCTION     1.69     1.98     8.41     0  02:41        1.96
  YS02001779           JUNCTION     1.44     1.68     8.37     0  02:40        1.68
  YS02001882           JUNCTION     0.37     0.64     7.36     0  02:35        0.64
  YS02001884           JUNCTION     0.47     0.74     7.36     0  02:30        0.74
  YS02001759           JUNCTION     1.74     2.06     8.42     0  03:15        2.04
  YS02001887           JUNCTION     0.54     0.82     7.36     0  02:32        0.82
  YS02001890           JUNCTION     0.57     0.85     7.36     0  02:34        0.85
  YS02001898           JUNCTION     0.34     0.60     7.34     0  02:48        0.60
  YS02001901           JUNCTION     0.46     0.73     7.34     0  02:37        0.73
  YS02001904           JUNCTION     0.44     0.70     7.33     0  02:36        0.70
  YS02001907           JUNCTION     0.77     1.05     7.34     0  02:47        1.05
  YS02001910           JUNCTION     0.56     0.83     7.33     0  02:35        0.83
  YS02001915           JUNCTION     0.36     0.62     7.33     0  02:36        0.61
  YS02001918           JUNCTION     0.13     0.26     7.33     0  02:29        0.26
  YS02001619           JUNCTION     1.23     1.61     8.54     0  02:45        1.46
  YS02001629           JUNCTION     1.57     1.85     8.40     0  02:49        1.83
  YS02001641           JUNCTION     1.68     1.96     8.40     0  02:59        1.93
  YS02001644           JUNCTION     1.68     1.92     8.35     0  02:44        1.92
  YS02001652           JUNCTION     1.53     2.16     8.76     0  02:38        1.97
  YS02001655           JUNCTION     1.29     2.20     9.05     0  02:31        2.16
  YS02001920           JUNCTION     0.22     0.33     7.34     0  02:30        0.33
  YS02001923           JUNCTION     0.09     0.12     7.38     0  03:01        0.12
  YS02001926           JUNCTION     0.18     0.23     7.68     0  03:01        0.23
  YS02001929           JUNCTION     0.09     0.12     7.82     0  03:01        0.12
  YS02001658           JUNCTION     1.03     2.30     9.44     0  02:42        1.68
  YS02001661           JUNCTION     0.79     1.99     9.39     0  03:17        1.51
  YS02001664           JUNCTION     0.35     0.58     8.50     0  03:06        0.56
  YS02001622           JUNCTION     1.25     1.58     8.48     0  02:45        1.49
  YS02001633           JUNCTION     1.67     1.98     8.43     0  02:59        1.92
  YS02001649           JUNCTION     1.72     2.05     8.44     0  02:36        2.05
  YS02001757           JUNCTION     1.84     2.17     8.43     0  03:34        2.15
  YS02001895           JUNCTION     0.34     0.60     7.35     0  02:36        0.60
  YS02001625           JUNCTION     1.53     1.78     8.38     0  02:49        1.78
  YS02163301           JUNCTION     1.60     1.90     8.42     0  02:59        1.86
  YS02163601           JUNCTION     1.72     2.03     8.43     0  02:59        1.97
  YS02164001           JUNCTION     1.66     1.96     8.42     0  02:59        1.90
  YS02001647           JUNCTION     1.51     1.82     8.43     0  02:44        1.79
  YSB1154              JUNCTION     0.25     0.46     9.52     0  02:10        0.46
  YSB6556              JUNCTION     0.14     0.35     9.52     0  02:10        0.35
  YSB1174              JUNCTION     0.20     0.41     9.52     0  02:10        0.41
  YSB1171              JUNCTION     0.40     0.61     9.52     0  02:10        0.61
  YS02006553           JUNCTION     0.77     1.06     7.34     0  02:28        1.04
  YS02006561           JUNCTION     0.19     0.45     7.11     0  02:20        0.44
  YS02006556           JUNCTION     0.74     1.03     7.34     0  02:49        1.01
  YS02006558           JUNCTION     0.79     1.08     7.35     0  02:49        1.05
  YS02001783           JUNCTION     0.35     1.28     7.42     0  02:19        0.98
  YS02001784           JUNCTION     0.38     1.37     7.44     0  02:19        0.98
  YS02001786           JUNCTION     0.34     1.56     7.59     0  02:19        0.91
  YS02001788           JUNCTION     0.27     1.38     7.36     0  02:19        0.87
  YS02001790           JUNCTION     0.36     1.67     7.32     0  04:14        1.12
  YS02001791           JUNCTION     0.31     2.35     7.82     0  04:12        1.20
  YS02001793           JUNCTION     0.42     2.48     7.31     0  04:10        1.78
  WSC                  OUTFALL      0.32     0.40     1.07     0  04:51        0.40
  JK-storage           STORAGE      2.36     5.80     6.60     0  02:18        5.80
  CC-storage           STORAGE      1.10     1.37     8.37     0  04:02        1.37
  XR-storage           STORAGE      4.57     7.15     5.15     0  04:04        7.15
  
  
  *******************
  Node Inflow Summary
  *******************
  
  -------------------------------------------------------------------------------------------------
                                  Maximum  Maximum                  Lateral       Total        Flow
                                  Lateral    Total  Time of Max      Inflow      Inflow     Balance
                                   Inflow   Inflow   Occurrence      Volume      Volume       Error
  Node                 Type           LPS      LPS  days hr:min    10^6 ltr    10^6 ltr     Percent
  -------------------------------------------------------------------------------------------------
  WS02001211           JUNCTION      7.35   389.37     0  04:09       0.207         9.8       0.405
  WS02001212           JUNCTION      0.00   391.39     0  04:08           0        9.76       0.219
  WS02001213           JUNCTION      0.00   393.35     0  04:08           0        9.74       0.298
  WS02003069           JUNCTION      0.32   947.93     0  04:49     0.00902        16.5       0.177
  WS02003072           JUNCTION      0.00   947.81     0  04:49           0        16.5       0.220
  WS02003073           JUNCTION      1.82   949.58     0  04:50      0.0514        16.5       0.248
  WS02003060           JUNCTION     16.53   947.67     0  04:48       0.466        16.6       0.168
  WS02003066           JUNCTION      0.00   547.14     0  04:47           0        6.42       0.052
  WS02003059           JUNCTION      0.00   396.59     0  04:09           0        9.71       0.391
  WS02003067           JUNCTION      0.00   547.10     0  04:47           0        6.43       0.112
  WS02004401           JUNCTION      0.00   554.95     0  03:45           0         6.6       0.235
  WS02004402           JUNCTION      0.00   552.78     0  03:45           0        6.58       0.230
  WS02004403           JUNCTION      0.00   551.64     0  03:46           0        6.57       0.216
  WS02004404           JUNCTION      0.16   551.59     0  03:46     0.00457        6.56       0.169
  WS02004406           JUNCTION      0.00   551.46     0  03:46           0        6.53       0.416
  WS02004409           JUNCTION      0.00   551.05     0  03:47           0         6.5       0.157
  WS02004410           JUNCTION      0.00   547.79     0  04:46           0        6.49       0.190
  WS02004411           JUNCTION      0.00   547.49     0  04:46           0        6.48       0.205
  WS02004412           JUNCTION      0.00   547.31     0  04:47           0        6.46       0.235
  WS02004413           JUNCTION      0.00   547.20     0  04:47           0        6.45       0.366
  WS02004405           JUNCTION      0.04   551.27     0  03:46     0.00107        6.55       0.258
  WS02006109           JUNCTION      1.23   565.79     0  03:42      0.0347        6.63       0.150
  WS02006110           JUNCTION      0.00   565.58     0  03:42           0        6.62       0.183
  WS02006111           JUNCTION      0.00   586.90     0  03:42           0         6.6       0.027
  WS02006112           JUNCTION     16.33   569.27     0  03:44      0.0441        6.64       0.312
  WS02006113           JUNCTION      0.00   566.15     0  03:42           0        6.61       0.067
  WS02006115           JUNCTION      0.00   571.41     0  03:43           0        6.62       0.189
  WS02006116           JUNCTION      0.00   557.49     0  03:45           0        6.61       0.197
  WS02006230           JUNCTION     10.28   531.18     0  04:41        0.29        5.26       0.140
  WS02006231           JUNCTION      0.00   520.91     0  04:40           0        4.97       0.059
  WS02006232           JUNCTION      0.00   520.74     0  04:40           0        4.97       0.173
  WS02006234           JUNCTION      0.00   521.05     0  04:33           0        4.97      -0.022
  WS02006235           JUNCTION      0.00   522.39     0  04:34           0        5.06       0.127
  WS02006238           JUNCTION      0.00   326.91     0  04:43           0        2.51      -0.082
  WS02006240           JUNCTION      0.00   337.21     0  05:22           0        2.42       0.074
  WS02006242           JUNCTION      0.00   347.11     0  05:21           0        2.38       0.122
  WS02006243           JUNCTION      0.00   356.12     0  05:21           0        2.36      -0.235
  WS02006245           JUNCTION      0.00   361.35     0  05:21           0        2.36       0.366
  WS02006247           JUNCTION      0.00   366.04     0  05:21           0        2.36       0.069
  WS02006248           JUNCTION      0.00   370.59     0  05:20           0        2.36      -0.183
  WS02006249           JUNCTION      0.00   429.36     0  04:33           0        2.41       0.285
  WS02006239           JUNCTION      0.00   327.77     0  05:22           0        2.46      -0.239
  WS02006251           JUNCTION      0.08   414.13     0  04:33     0.00217        2.47      -0.031
  WS02006252           JUNCTION      0.00   400.00     0  04:30           0        2.16       0.011
  WS02006253           JUNCTION      2.34   139.59     0  03:40     0.00564       0.306       0.025
  WS02006256           JUNCTION      0.00   983.00     0  00:00           0        6.21      -0.025
  WS02004138           JUNCTION      0.00   380.00     0  00:00           0        9.63       0.067
  WS02004139           JUNCTION      0.32   396.51     0  00:00     0.00905        9.64       0.463
  WS02004407           JUNCTION      0.00   551.24     0  03:47           0         6.5       0.067
  WS02006228           JUNCTION      0.00   564.84     0  03:42           0         6.6       0.130
  WS02006229           JUNCTION      0.00   560.76     0  03:42           0        6.62       0.163
  WS02006280           JUNCTION      0.00   381.59     0  02:12           0        1.38       0.005
  WS02006284           JUNCTION      0.10   381.53     0  02:11      0.0027        1.38       0.089
  WS02006287           JUNCTION      0.00   381.39     0  02:11           0        1.37       0.052
  WSF200               JUNCTION      0.00   547.16     0  04:47           0        6.42       0.043
  HS02004901           JUNCTION     20.05    20.05     0  02:06      0.0531      0.0533       3.411
  HS02004881           JUNCTION      8.29    76.32     0  02:11      0.0229       0.245       0.066
  HS02004876           JUNCTION     13.82    68.66     0  02:11       0.044       0.223       0.241
  HS02004870           JUNCTION     14.89    55.12     0  02:11      0.0434       0.179       0.058
  HS02004862           JUNCTION     12.68    41.04     0  02:11      0.0492       0.136       0.125
  HS02004856           JUNCTION     11.09    28.46     0  02:11      0.0326      0.0881       1.661
  HS02004852           JUNCTION      0.00    17.97     0  02:11           0      0.0555       0.094
  HS02004848           JUNCTION     26.20    26.20     0  02:13       0.104       0.104       0.041
  HS02004842           JUNCTION      0.00     9.04     0  02:21           0      0.0617      26.704
  HS02004837           JUNCTION     30.69    38.32     0  02:10       0.254       0.303       0.268
  HS02004830           JUNCTION      0.15    38.44     0  02:11     0.00423       0.294       0.422
  HS02004824           JUNCTION     29.78    68.00     0  02:13       0.136       0.428       0.125
  HS02004817           JUNCTION      0.60    68.59     0  02:14      0.0169       0.445       3.895
  HS02004807           JUNCTION     27.85    94.45     0  02:12      0.0797       0.508       0.839
  HS02004802           JUNCTION      0.00    95.04     0  02:13           0       0.503       0.813
  HS02004799           JUNCTION     21.73   244.09     0  02:09      0.0645       0.755       0.318
  HS02004792           JUNCTION     95.46   222.68     0  02:09       0.279        0.69       0.058
  HS02004788           JUNCTION     31.37   129.30     0  02:10       0.137       0.412       0.095
  HS02004785           JUNCTION      0.15    98.30     0  02:09     0.00423       0.277       0.174
  HS02004777           JUNCTION      0.03    98.64     0  02:08    0.000846       0.277       1.905
  HS02004770           JUNCTION     80.64    99.64     0  02:07       0.227       0.278       1.124
  HS02004480           JUNCTION      0.00   288.44     0  02:10           0       0.887       0.092
  HS02004479           JUNCTION      0.00    45.10     0  02:11           0       0.144       0.508
  HS02004478           JUNCTION      0.00   381.37     0  02:11           0        1.38       0.043
  YS02001745           JUNCTION    153.68   211.56     0  02:41        1.53        1.53       0.762
  YS02001748           JUNCTION      0.04   338.58     0  02:41     0.00127        1.52       1.510
  YS02001751           JUNCTION      0.01   333.27     0  02:29     0.00031         1.5       1.610
  YS02001754           JUNCTION      0.26   222.31     0  02:34     0.00733        1.48       1.707
  YS02001762           JUNCTION      0.00   230.21     0  02:38           0        1.59       1.345
  YS02001765           JUNCTION      0.00   226.12     0  02:38           0        1.59       1.548
  YS02001767           JUNCTION      0.54   222.24     0  02:38      0.0151        1.61       2.260
  YS02001770           JUNCTION    197.38   216.11     0  02:44        1.74        1.75       1.835
  YS02001774           JUNCTION      0.00    60.36     0  02:07           0        0.13      23.592
  YS02001779           JUNCTION      0.01    57.92     0  03:36    0.000141      0.0984      18.305
  YS02001882           JUNCTION      0.00    12.58     0  02:51           0      0.0132      17.328
  YS02001884           JUNCTION      0.00    18.15     0  02:51           0      0.0425      14.688
  YS02001759           JUNCTION    193.18   425.63     0  02:38        1.61        3.17       0.728
  YS02001887           JUNCTION    253.71   259.53     0  02:25        1.89        1.91       0.408
  YS02001890           JUNCTION      0.00   257.87     0  02:31           0        1.87       0.455
  YS02001898           JUNCTION      0.00   260.37     0  02:31           0        1.86       0.145
  YS02001901           JUNCTION      0.00   260.41     0  02:33           0        1.86       0.333
  YS02001904           JUNCTION      0.00   259.85     0  02:23           0        1.85       0.307
  YS02001907           JUNCTION      0.00   474.37     0  02:34           0        4.05       0.572
  YS02001910           JUNCTION      0.00   223.66     0  02:53           0         2.2       0.497
  YS02001915           JUNCTION    137.60   216.59     0  02:47        1.29        2.21       0.238
  YS02001918           JUNCTION      0.00    76.70     0  02:48           0        0.92       0.168
  YS02001619           JUNCTION    133.87   133.87     0  02:40        1.28        1.28       0.947
  YS02001629           JUNCTION      0.00   224.82     0  02:32           0        1.21       2.431
  YS02001641           JUNCTION      0.00   332.80     0  02:41           0        2.61       0.811
  YS02001644           JUNCTION    146.00   623.13     0  03:34        1.47        5.67       0.471
  YS02001652           JUNCTION      0.00   261.34     0  02:43           0        1.35       1.797
  YS02001655           JUNCTION      0.15   423.56     0  02:32     0.00434        1.37       1.699
  YS02001920           JUNCTION      2.87    69.86     0  03:01      0.0809       0.922       0.272
  YS02001923           JUNCTION      0.04    67.00     0  03:01     0.00106       0.842       0.050
  YS02001926           JUNCTION      0.05    66.98     0  03:01     0.00147       0.843       0.337
  YS02001929           JUNCTION     66.94    66.94     0  03:01       0.842       0.842       0.048
  YS02001658           JUNCTION      0.00   619.88     0  02:44           0        1.44       1.326
  YS02001661           JUNCTION      0.00   536.28     0  03:03           0        1.79      -0.034
  YS02001664           JUNCTION    180.34   386.40     0  03:03         1.4        1.75       0.392
  YS02001622           JUNCTION      0.00   177.51     0  02:32           0        1.27       2.553
  YS02001633           JUNCTION    148.29   333.73     0  02:41        1.51        2.68       1.208
  YS02001649           JUNCTION      0.00   667.57     0  02:43           0        4.31       0.875
  YS02001757           JUNCTION      0.00  1166.30     0  02:42           0        7.39       1.260
  YS02001895           JUNCTION      0.00   258.89     0  02:26           0        1.86       0.230
  YS02001625           JUNCTION      0.00   224.80     0  02:32           0        1.24       3.261
  YS02163301           JUNCTION      0.00   184.67     0  02:41           0         1.2       2.036
  YS02163601           JUNCTION      0.11   333.38     0  02:41      0.0031        2.63       1.160
  YS02164001           JUNCTION      0.00   333.07     0  02:41           0        2.61       0.776
  YS02001647           JUNCTION      0.00   480.90     0  02:49           0        3.52       0.804
  YSB1154              JUNCTION     24.56    24.56     0  02:09      0.0782      0.0793       1.852
  YSB6556              JUNCTION      0.00    24.52     0  02:10           0      0.0802       1.580
  YSB1174              JUNCTION     22.41    22.41     0  02:06      0.0571      0.0579       2.267
  YSB1171              JUNCTION      0.00    44.96     0  02:10           0       0.144       4.609
  YS02006553           JUNCTION      0.00   467.02     0  02:34           0        4.03       0.371
  YS02006561           JUNCTION      0.00   702.29     0  02:28           0        5.71       0.020
  YS02006556           JUNCTION      0.00   467.05     0  02:34           0        4.04       0.265
  YS02006558           JUNCTION    214.43   685.69     0  02:33        1.72        5.74       0.071
  YS02001783           JUNCTION      0.00   678.12     0  02:28           0        5.71       0.029
  YS02001784           JUNCTION      1.06   684.23     0  02:29      0.0299        5.74       0.048
  YS02001786           JUNCTION      0.06   706.80     0  02:30     0.00159        5.73       0.046
  YS02001788           JUNCTION      0.07   755.16     0  02:30       0.002        5.73       0.032
  YS02001790           JUNCTION      0.15   795.27     0  02:30     0.00437        5.74       0.024
  YS02001791           JUNCTION      0.00   833.76     0  02:30           0        5.74       0.009
  YS02001793           JUNCTION      0.00   880.25     0  02:30           0        5.78      -0.026
  WSC                  OUTFALL       0.00   949.55     0  04:51           0        16.5       0.000
  JK-storage           STORAGE       0.00   891.46     0  03:04           0        5.93     -13.827
  CC-storage           STORAGE       0.00  1170.98     0  02:44           0        6.19       1.063
  XR-storage           STORAGE     482.07   482.07     0  02:45        8.86        9.46      -1.819
  
  
  **********************
  Node Surcharge Summary
  **********************
  
  Surcharging occurs when water rises above the top of the highest conduit.
  ---------------------------------------------------------------------
                                               Max. Height   Min. Depth
                                   Hours       Above Crown    Below Rim
  Node                 Type      Surcharged         Meters       Meters
  ---------------------------------------------------------------------
  WS02006109           JUNCTION        2.16          0.187        1.633
  WS02006110           JUNCTION        0.57          0.036        1.814
  WS02006112           JUNCTION        0.92          0.089        1.591
  WS02006230           JUNCTION        0.36          0.067        1.503
  WS02006231           JUNCTION        0.63          0.182        1.348
  WS02006232           JUNCTION        1.76          0.387        1.093
  WS02006234           JUNCTION        1.09          0.473        0.767
  WS02006235           JUNCTION        1.26          0.465        0.825
  WS02006238           JUNCTION        1.31          0.488        0.942
  WS02006240           JUNCTION        0.98          0.489        0.901
  WS02006242           JUNCTION        1.03          0.666        0.154
  WS02006243           JUNCTION        0.81          0.688        0.082
  WS02006245           JUNCTION        0.72          0.609        0.241
  WS02006247           JUNCTION        0.72          0.448        0.312
  WS02006248           JUNCTION        0.57          0.371        0.009
  WS02006249           JUNCTION        0.62          0.390        0.000
  WS02006239           JUNCTION        1.08          0.448        0.842
  WS02006251           JUNCTION        0.26          0.234        0.946
  WS02006252           JUNCTION        0.93          0.408        0.692
  WS02006253           JUNCTION        0.27          0.447        2.033
  WS02006256           JUNCTION        6.32          2.050        0.000
  WS02006228           JUNCTION        2.13          0.228        1.972
  YS02001748           JUNCTION        4.91          0.233        0.957
  YS02001751           JUNCTION        5.18          0.628        0.572
  YS02001754           JUNCTION        5.44          0.756        0.394
  YS02001762           JUNCTION        5.63          1.022        0.128
  YS02001765           JUNCTION        5.61          0.970        0.130
  YS02001767           JUNCTION        5.60          0.934        0.096
  YS02001770           JUNCTION        5.59          0.893        0.027
  YS02001774           JUNCTION        5.62          0.984        0.066
  YS02001779           JUNCTION        5.43          0.680        0.000
  YS02001759           JUNCTION        5.64          1.060        0.150
  YS02001907           JUNCTION        0.81          0.042        0.908
  YS02001619           JUNCTION        5.16          0.610        0.000
  YS02001629           JUNCTION        5.19          0.470        0.000
  YS02001641           JUNCTION        5.61          0.960        0.140
  YS02001644           JUNCTION        5.61          0.920        0.000
  YS02001652           JUNCTION        5.47          1.130        0.000
  YS02001655           JUNCTION        5.21          1.200        0.000
  YS02001658           JUNCTION        4.94          1.300        0.000
  YS02001661           JUNCTION        0.10          0.916        0.474
  YS02001622           JUNCTION        5.23          0.576        0.044
  YS02001633           JUNCTION        5.60          0.959        0.101
  YS02001649           JUNCTION        5.63          1.050        0.000
  YS02001757           JUNCTION        5.67          1.170        0.040
  YS02001625           JUNCTION        5.58          0.780        0.000
  YS02163301           JUNCTION        5.59          0.904        0.126
  YS02163601           JUNCTION        5.63          1.032        0.048
  YS02164001           JUNCTION        5.61          0.962        0.138
  YS02001647           JUNCTION        5.52          0.821        0.079
  YS02006553           JUNCTION        0.92          0.056        1.134
  YS02001783           JUNCTION        0.16          0.476        1.124
  YS02001784           JUNCTION        0.18          0.569        0.921
  YS02001786           JUNCTION        0.16          0.765        0.665
  YS02001788           JUNCTION        0.15          0.579        0.901
  YS02001790           JUNCTION        0.58          0.875        0.282
  YS02001791           JUNCTION        0.66          1.548        0.372
  YS02001793           JUNCTION        1.08          1.475        1.125
  
  
  *********************
  Node Flooding Summary
  *********************
  
  Flooding refers to all water that overflows a node, whether it ponds or not.
  --------------------------------------------------------------------------
                                                             Total   Maximum
                                 Maximum   Time of Max       Flood    Ponded
                        Hours       Rate    Occurrence      Volume     Depth
  Node                 Flooded       LPS   days hr:min    10^6 ltr    Meters
  --------------------------------------------------------------------------
  WS02006249              0.23    106.47      0  04:33       0.047     0.000
  WS02006256              2.35    978.40      0  00:00       3.602     0.000
  YS02001779              1.58     57.92      0  03:36       0.078     0.000
  YS02001619              0.01      6.84      0  02:45       0.000     0.000
  YS02001629              0.01     24.25      0  02:52       0.000     0.000
  YS02001644              4.02    623.11      0  03:34       3.722     0.000
  YS02001652              0.01     18.82      0  02:38       0.000     0.000
  YS02001655              0.01    203.74      0  02:38       0.001     0.000
  YS02001658              0.01    314.75      0  02:44       0.000     0.000
  YS02001649              0.01     42.98      0  02:36       0.000     0.000
  YS02001625              0.06     18.67      0  03:02       0.001     0.000
  JK-storage              0.39    614.77      0  02:20       0.417     0.000
  
  
  **********************
  Storage Volume Summary
  **********************
  
  --------------------------------------------------------------------------------------------------
                         Average     Avg  Evap Exfil       Maximum     Max    Time of Max    Maximum
                          Volume    Pcnt  Pcnt  Pcnt        Volume    Pcnt     Occurrence    Outflow
  Storage Unit           1000 m3    Full  Loss  Loss       1000 m3    Full    days hr:min        LPS
  --------------------------------------------------------------------------------------------------
  JK-storage               0.118      41     0     0         0.291     100       0  02:18     983.00
  CC-storage               3.058      19     0     0         3.827      24       0  04:02     400.00
  XR-storage               0.548      59     0     0         0.858      93       0  04:04     380.00
  
  
  ***********************
  Outfall Loading Summary
  ***********************
  
  ---------------------------------------------------------------------------------------------------------------------------------
                         Flow       Avg       Max       Total         Total         Total         Total         Total         Total
                         Freq      Flow      Flow      Volume           COD            SS            TN            TP         NH4-N
  Outfall Node           Pcnt       LPS       LPS    10^6 ltr            kg            kg            kg            kg            kg
  ---------------------------------------------------------------------------------------------------------------------------------
  WSC                   99.98    665.26    949.55      16.476      2117.535      3504.457       163.119        19.779       100.303
  ---------------------------------------------------------------------------------------------------------------------------------
  System                99.98    665.26    949.55      16.476      2117.535      3504.457       163.119        19.779       100.303
  
  
  ********************
  Link Flow Summary
  ********************
  
  -----------------------------------------------------------------------------
                                 Maximum  Time of Max   Maximum    Max/    Max/
                                  |Flow|   Occurrence   |Veloc|    Full    Full
  Link                 Type          LPS  days hr:min     m/sec    Flow   Depth
  -----------------------------------------------------------------------------
  WS02003066WSF200     CONDUIT    547.16     0  04:47      2.77    0.09    0.23
  WS02006287WS02006284 CONDUIT    381.43     0  02:11      1.99    0.18    0.29
  WS02006284WS02006280 CONDUIT    381.59     0  02:12      2.23    0.16    0.27
  WS02006280WS02006229 CONDUIT    381.60     0  02:12      3.59    0.08    0.19
  WS02006229WS02006228 CONDUIT    564.84     0  03:42      1.12    1.87    1.00
  WS02006256WS02006235 CONDUIT    288.60     0  00:00      4.23    3.05    1.00
  WS02006253WS02006251 CONDUIT    134.08     0  03:40      0.61    0.40    1.00
  WS02006252WS02006251 CONDUIT    404.53     0  04:33      3.22    1.48    1.00
  WS02006251WS02006249 CONDUIT    429.36     0  04:33      1.13    1.24    1.00
  WS02006249WS02006248 CONDUIT    370.59     0  05:20      1.19    2.03    1.00
  WS02006248WS02006247 CONDUIT    366.04     0  05:21      1.16    0.80    1.00
  WS02006247WS02006245 CONDUIT    361.35     0  05:21      1.14    2.87    1.00
  WS02006245WS02006243 CONDUIT    356.12     0  05:21      1.18    1.05    1.00
  WS02006243WS02006242 CONDUIT    347.11     0  05:21      1.06    0.74    1.00
  WS02006242WS02006240 CONDUIT    337.21     0  05:22      1.00    1.34    1.00
  WS02006240WS02006239 CONDUIT    327.77     0  05:22      1.04    1.03    1.00
  WS02006239WS02006238 CONDUIT    326.91     0  04:43      0.94    1.05    1.00
  WS02006238WS02006235 CONDUIT    327.68     0  04:34      1.46    0.73    1.00
  WS02006235WS02006234 CONDUIT    521.05     0  04:33      1.35    5.50    1.00
  WS02006234WS02006232 CONDUIT    520.74     0  04:40      1.39    1.05    1.00
  WS02006232WS02006231 CONDUIT    520.91     0  04:40      1.35    1.09    1.00
  WS02006231WS02006230 CONDUIT    520.90     0  04:41      1.39    7.90    1.00
  WS02006230WS02006229 CONDUIT    533.55     0  04:33      1.39   11.87    1.00
  WS02006228WS02006109 CONDUIT    564.56     0  03:42      1.12    2.47    1.00
  WS02006116WS02004401 CONDUIT    554.95     0  03:45      0.79    0.76    0.85
  WS02006115WS02006116 CONDUIT    557.49     0  03:45      0.93    0.72    0.77
  WS02006113WS02006111 CONDUIT    586.90     0  03:42      2.50    0.70    0.47
  WS02006112WS02006115 CONDUIT    571.41     0  03:43      0.80    0.34    0.88
  WS02006111WS02006112 CONDUIT    568.88     0  03:44      1.57    0.27    0.68
  WS02006110WS02006113 CONDUIT    566.15     0  03:42      1.33    0.52    0.79
  WS02006109WS02006110 CONDUIT    565.58     0  03:42      1.13    1.09    1.00
  WS02004411WS02004412 CONDUIT    547.31     0  04:47      0.93    0.78    0.70
  WS02004401WS02004402 CONDUIT    552.78     0  03:45      0.76    0.66    0.87
  WS02004413WS02003067 CONDUIT    547.10     0  04:47      1.12    0.23    0.60
  WS02004412WS02004413 CONDUIT    547.20     0  04:47      0.83    0.37    0.78
  WS02004410WS02004411 CONDUIT    547.49     0  04:46      0.95    0.75    0.69
  WS02004409WS02004410 CONDUIT    547.79     0  04:46      0.99    0.71    0.68
  WS02004407WS02004409 CONDUIT    551.05     0  03:47      1.51    0.20    0.49
  WS02004406WS02004407 CONDUIT    551.24     0  03:47      1.05    0.25    0.63
  WS02004405WS02004406 CONDUIT    551.46     0  03:46      0.71    1.09    0.96
  WS02004404WS02004405 CONDUIT    551.23     0  03:46      0.71    5.40    0.97
  WS02004403WS02004404 CONDUIT    551.42     0  03:46      0.72    0.40    0.94
  WS02004402WS02004403 CONDUIT    551.64     0  03:46      0.75    0.79    0.89
  WS02004139WS02001211 CONDUIT    382.02     0  04:09      0.90    0.48    0.60
  WS02004138WS02004139 CONDUIT    396.19     0  00:00      3.65    0.08    0.44
  WS02003067WS02003066 CONDUIT    547.14     0  04:47      1.22    0.18    0.42
  WS02001213WS02003059 CONDUIT    396.59     0  04:09      0.88    0.65    0.78
  WS02001212WS02001213 CONDUIT    393.35     0  04:08      1.32    0.61    0.47
  WS02001211WS02001212 CONDUIT    391.39     0  04:08      0.78    0.30    0.65
  WS02003072WS02003073 CONDUIT    947.75     0  04:50      1.73    2.05    0.49
  WS02003069WS02003072 CONDUIT    947.81     0  04:49      1.63    0.46    0.51
  WS02003060WS02003069 CONDUIT    947.61     0  04:49      1.87    0.37    0.46
  WS02003059WS02003060 CONDUIT    401.23     0  04:08      0.95    0.26    0.66
  HS02004901HS02004770 CONDUIT     19.28     0  02:08      0.07    0.07    0.41
  HS02004876HS02004881 CONDUIT     68.65     0  02:12      0.90    0.73    0.11
  HS02004870HS02004876 CONDUIT     55.08     0  02:11      0.62    0.04    0.13
  HS02004842HS02004848 CONDUIT      9.04     0  02:21      0.04    0.01    0.30
  HS02004837HS02004842 CONDUIT      9.42     0  02:22      0.42    0.01    0.31
  HS02004830HS02004837 CONDUIT     38.29     0  02:11      0.54    0.04    0.10
  HS02004824HS02004830 CONDUIT     38.43     0  02:12      0.57    0.05    0.10
  HS02004817HS02004824 CONDUIT     67.99     0  02:14      0.21    0.03    0.46
  HS02004770HS02004777 CONDUIT     98.61     0  02:08      0.34    0.18    0.42
  HS02004799HS02004480 CONDUIT    243.78     0  02:10      0.81    0.31    0.43
  HS02004792HS02004799 CONDUIT    222.57     0  02:09      0.92    0.14    0.35
  HS02004788HS02004792 CONDUIT    129.19     0  02:10      1.04    0.09    0.18
  HS02004785HS02004788 CONDUIT     98.21     0  02:10      0.69    0.74    0.20
  HS02004777HS02004785 CONDUIT     98.15     0  02:09      0.40    0.12    0.35
  HS02004480HS02004478 CONDUIT    288.46     0  02:10      1.24    1.21    0.33
  HS02004479HS02004480 CONDUIT     45.40     0  02:12      0.18    0.04    0.42
  HS02004862HS02004870 CONDUIT     40.99     0  02:12      0.62    0.04    0.09
  HS02004848HS02004852 CONDUIT     17.97     0  02:11      0.42    0.02    0.06
  HS02004856HS02004862 CONDUIT     28.41     0  02:12      0.46    0.03    0.09
  HS02004852HS02004856 CONDUIT     17.91     0  02:12      0.22    0.02    0.12
  HS02004802HS02004478 CONDUIT     95.81     0  02:14      0.41    0.08    0.35
  HS02004478WS02006287 CONDUIT    381.39     0  02:11      1.69    0.11    0.25
  HS02004817HS02004807 CONDUIT     69.61     0  02:15      0.16    0.04    0.61
  HS02004807HS02004802 CONDUIT     95.04     0  02:13      0.35    0.18    0.40
  YS02001759YS02001757 CONDUIT    426.97     0  02:38      0.54    0.30    1.00
  YS02001762YS02001759 CONDUIT    233.46     0  02:38      0.30    0.27    1.00
  YS02001765YS02001762 CONDUIT    230.21     0  02:38      0.29    0.22    1.00
  YS02001770YS02001767 CONDUIT    221.70     0  02:38      0.30    0.88    1.00
  YS02001774YS02001770 CONDUIT     60.36     0  02:07      0.14    0.04    1.00
  YS02001779YS02001774 CONDUIT     57.92     0  03:36      0.07    0.03    1.00
  YS02001649YS02001757 CONDUIT    668.30     0  02:43      0.85    0.41    1.00
  YS02001767YS02001765 CONDUIT    226.12     0  02:38      0.29    0.28    1.00
  YS02006561YS02001783 CONDUIT    678.12     0  02:28      2.13    0.35    0.78
  YS02001783YS02001784 CONDUIT    683.17     0  02:29      1.58    0.94    1.00
  YS02001784YS02001785 CONDUIT    706.74     0  02:30      1.72    1.64    1.00
  YS02001788YS02001790 CONDUIT    795.12     0  02:30      2.25    0.59    1.00
  YS02001790YS02001791 CONDUIT    833.76     0  02:30      2.73    0.91    1.00
  YS02001791YS02001793 CONDUIT    880.25     0  02:30      5.55    0.38    1.00
  YS02001910YS02001907 CONDUIT    222.78     0  02:52      0.49    0.13    0.91
  YS02001786YS02001788 CONDUIT    755.09     0  02:30      2.16    1.45    1.00
  YS02001915YS02001910 CONDUIT    223.66     0  02:53      0.46    0.11    0.72
  YS02001918YS02001915 CONDUIT     83.38     0  02:56      0.44    0.05    0.44
  YS02001923YS02001920 CONDUIT     66.99     0  03:01      0.58    0.03    0.23
  YS02001926YS02001923 CONDUIT     66.96     0  03:01      0.66    0.10    0.19
  YS02001929YS02001926 CONDUIT     66.93     0  03:01      0.71    0.03    0.18
  YS02001920YS02001918 CONDUIT     76.70     0  02:48      0.58    0.07    0.30
  YS02001629YS02163301 CONDUIT    184.67     0  02:41      0.24    0.23    1.00
  YS02001619YS02001622 CONDUIT    177.51     0  02:32      0.75    0.26    1.00
  YS02001622YS02001625 CONDUIT    224.80     0  02:32      0.32    0.12    1.00
  YS02001625YS02001629 CONDUIT    224.82     0  02:32      0.29    0.11    1.00
  YS02163301YS02001633 CONDUIT    185.51     0  02:41      0.24    0.17    1.00
  YS02163601YS02164001 CONDUIT    333.07     0  02:41      0.42    0.30    1.00
  YS02164001YS02001641 CONDUIT    332.80     0  02:41      0.42    0.45    1.00
  YS02001641YS02001644 CONDUIT    333.22     0  02:49      0.42    1.08    1.00
  YS02001647YS02001649 CONDUIT    483.64     0  02:49      0.62    0.26    1.00
  YS02006553YS02006556 CONDUIT    467.05     0  02:34      0.60    0.40    0.99
  YS02006556YS02006558 CONDUIT    474.99     0  02:48      0.61    0.38    1.00
  YSB6556YSB1171       CONDUIT     24.81     0  02:12      0.09    0.03    0.69
  YS02001907YS02006553 CONDUIT    467.02     0  02:34      0.52    0.55    1.00
  YS02006558YS02006561 CONDUIT    702.29     0  02:28      3.21    1.55    0.82
  YS02001633YS02163601 CONDUIT    333.27     0  02:41      0.42    0.35    1.00
  YS02001644YS02001647 CONDUIT    480.90     0  02:49      0.61    0.28    1.00
  YS02001745YS02001748 CONDUIT    338.54     0  02:41      1.64    0.13    0.93
  YS02001748YS02001751 CONDUIT    333.26     0  02:29      1.22    0.17    1.00
  YS02001751YS02001754 CONDUIT    222.05     0  02:34      0.91    0.11    1.00
  YS02001754YS02001757 CONDUIT    221.05     0  02:34      0.33    0.09    1.00
  YS02001882YS02001884 CONDUIT     13.16     0  03:08      0.08    0.02    0.66
  YS02001884YS02001887 CONDUIT     18.89     0  02:51      0.05    0.03    0.76
  YS02001890YS02001895 CONDUIT    258.89     0  02:26      0.43    0.12    0.72
  YS02001895YS02001898 CONDUIT    260.37     0  02:31      0.56    0.45    0.58
  YS02001898YS02001901 CONDUIT    260.41     0  02:33      0.48    0.17    0.66
  YS02001901YS02001904 CONDUIT    259.85     0  02:23      0.44    0.40    0.71
  YS02001904YS02001907 CONDUIT    265.99     0  02:22      0.38    0.09    0.85
  YS02001887YS02001890 CONDUIT    257.87     0  02:31      0.38    0.44    0.81
  YS02001652YS02001649 CONDUIT    261.38     0  02:43      0.40    0.13    1.00
  YS02001655YS02001652 CONDUIT    261.34     0  02:43      0.94    0.13    1.00
  YS02001658YS02001655 CONDUIT    423.40     0  02:32      1.41    0.18    1.00
  YS02001661YS02001658 CONDUIT    619.88     0  02:44      1.72    0.24    1.00
  YS02001664YS02001661 CONDUIT    536.28     0  03:03      1.54    0.17    0.72
  YSB1154YSB6556       CONDUIT     24.52     0  02:10      0.19    0.04    0.58
  YSB1174YSB1171       CONDUIT     21.38     0  02:07      0.08    0.03    0.69
  YSB1171HS02004479    CONDUIT     45.10     0  02:11      0.54    0.03    0.55
  HS02004881HS02006253 CONDUIT     76.32     0  02:11      2.16    0.01    0.51
  YS02001793JiankangQianchi CONDUIT    891.46     0  03:04     17.17    0.07    1.00
  YS02001757CaochengTiaoxuchi CONDUIT   1170.98     0  02:44      2.39    0.51    1.00
  WSF200WS02003060     CONDUIT    547.26     0  04:48      1.78    0.12    0.34
  1                    CONDUIT    949.55     0  04:51      3.28    0.33    0.40
  CC-Pump-1            PUMP       200.00     0  03:40              1.00
  CC-Pump-2            PUMP       200.00     0  04:30              1.00
  JK-Pump-1            PUMP       300.00     0  00:00              1.00
  JK-Pump-2            PUMP       683.00     0  00:00              1.00
  XR-Pump-1            PUMP        95.00     0  00:00              1.00
  XR-Pump-2            PUMP        95.00     0  00:00              1.00
  XR-Pump-3            PUMP        95.00     0  00:00              1.00
  XR-Pump-4            PUMP        95.00     0  00:00              1.00
  
  
  ***************************
  Flow Classification Summary
  ***************************
  
  -------------------------------------------------------------------------------------
                      Adjusted    ---------- Fraction of Time in Flow Class ---------- 
                       /Actual         Up    Down  Sub   Sup   Up    Down  Norm  Inlet 
  Conduit               Length    Dry  Dry   Dry   Crit  Crit  Crit  Crit  Ltd   Ctrl  
  -------------------------------------------------------------------------------------
  WS02003066WSF200        1.00   0.02  0.07  0.00  0.00  0.91  0.00  0.00  0.58  0.00
  WS02006287WS02006284    1.00   0.03  0.02  0.00  0.63  0.32  0.00  0.00  0.75  0.00
  WS02006284WS02006280    1.00   0.04  0.00  0.00  0.00  0.00  0.00  0.96  0.00  0.00
  WS02006280WS02006229    1.00   0.04  0.00  0.00  0.00  0.00  0.00  0.96  0.00  0.00
  WS02006229WS02006228    1.00   0.00  0.00  0.00  1.00  0.00  0.00  0.00  0.00  0.00
  WS02006256WS02006235    1.00   0.00  0.00  0.00  1.00  0.00  0.00  0.00  0.00  0.00
  WS02006253WS02006251    1.00   0.02  0.02  0.00  0.96  0.00  0.01  0.00  0.00  0.00
  WS02006252WS02006251    1.00   0.26  0.00  0.00  0.03  0.00  0.71  0.00  0.00  0.00
  WS02006251WS02006249    1.00   0.00  0.00  0.00  1.00  0.00  0.00  0.00  0.38  0.00
  WS02006249WS02006248    1.00   0.00  0.01  0.00  0.82  0.00  0.18  0.00  0.00  0.00
  WS02006248WS02006247    1.00   0.01  0.00  0.00  0.97  0.00  0.00  0.02  0.25  0.00
  WS02006247WS02006245    1.00   0.01  0.00  0.00  0.94  0.00  0.00  0.05  0.00  0.00
  WS02006245WS02006243    1.00   0.00  0.00  0.00  0.89  0.00  0.00  0.11  0.02  0.00
  WS02006243WS02006242    1.00   0.00  0.00  0.00  0.99  0.00  0.00  0.00  0.36  0.00
  WS02006242WS02006240    1.00   0.00  0.00  0.00  0.99  0.00  0.01  0.00  0.00  0.00
  WS02006240WS02006239    1.00   0.00  0.00  0.00  0.91  0.00  0.00  0.09  0.02  0.00
  WS02006239WS02006238    1.00   0.00  0.00  0.00  1.00  0.00  0.00  0.00  0.20  0.00
  WS02006238WS02006235    1.00   0.00  0.00  0.00  1.00  0.00  0.00  0.00  0.00  0.00
  WS02006235WS02006234    1.00   0.00  0.00  0.00  0.93  0.00  0.07  0.00  0.00  0.00
  WS02006234WS02006232    1.00   0.00  0.00  0.00  1.00  0.00  0.00  0.00  0.15  0.00
  WS02006232WS02006231    1.00   0.00  0.00  0.00  1.00  0.00  0.00  0.00  0.00  0.00
  WS02006231WS02006230    1.00   0.00  0.00  0.00  0.48  0.00  0.52  0.00  0.00  0.00
  WS02006230WS02006229    1.00   0.00  0.00  0.00  1.00  0.00  0.00  0.00  0.01  0.00
  WS02006228WS02006109    1.00   0.00  0.00  0.00  1.00  0.00  0.00  0.00  0.01  0.00
  WS02006116WS02004401    1.00   0.01  0.00  0.00  0.99  0.00  0.00  0.00  0.01  0.00
  WS02006115WS02006116    1.00   0.01  0.00  0.00  0.97  0.00  0.00  0.02  0.01  0.00
  WS02006113WS02006111    1.00   0.01  0.00  0.00  0.00  0.99  0.00  0.00  0.21  0.00
  WS02006112WS02006115    1.00   0.01  0.00  0.00  0.99  0.00  0.00  0.00  0.00  0.00
  WS02006111WS02006112    1.00   0.01  0.00  0.00  0.99  0.00  0.00  0.00  0.98  0.00
  WS02006110WS02006113    1.00   0.00  0.00  0.00  0.99  0.00  0.00  0.00  0.00  0.00
  WS02006109WS02006110    1.00   0.00  0.00  0.00  0.99  0.00  0.00  0.00  0.00  0.00
  WS02004411WS02004412    1.00   0.06  0.00  0.00  0.94  0.00  0.00  0.00  0.00  0.00
  WS02004401WS02004402    1.00   0.01  0.00  0.00  0.99  0.00  0.00  0.00  0.01  0.00
  WS02004413WS02003067    1.00   0.06  0.02  0.00  0.00  0.00  0.92  0.00  0.00  0.00
  WS02004412WS02004413    1.00   0.06  0.00  0.00  0.94  0.00  0.00  0.00  0.01  0.00
  WS02004410WS02004411    1.00   0.06  0.00  0.00  0.94  0.00  0.00  0.00  0.00  0.00
  WS02004409WS02004410    1.00   0.06  0.00  0.00  0.94  0.00  0.00  0.00  0.00  0.00
  WS02004407WS02004409    1.00   0.06  0.00  0.00  0.94  0.00  0.00  0.00  0.78  0.00
  WS02004406WS02004407    1.00   0.00  0.06  0.00  0.94  0.00  0.00  0.00  0.00  0.00
  WS02004405WS02004406    1.00   0.00  0.00  0.00  1.00  0.00  0.00  0.00  0.02  0.00
  WS02004404WS02004405    1.00   0.00  0.00  0.00  1.00  0.00  0.00  0.00  0.00  0.00
  WS02004403WS02004404    1.00   0.00  0.01  0.00  0.99  0.00  0.00  0.00  0.02  0.00
  WS02004402WS02004403    1.00   0.01  0.00  0.00  0.99  0.00  0.00  0.00  0.00  0.00
  WS02004139WS02001211    1.00   0.00  0.00  0.00  1.00  0.00  0.00  0.00  0.00  0.00
  WS02004138WS02004139    1.00   0.00  0.00  0.00  1.00  0.00  0.00  0.00  1.00  0.00
  WS02003067WS02003066    1.00   0.08  0.00  0.00  0.91  0.00  0.00  0.00  0.00  0.00
  WS02001213WS02003059    1.00   0.00  0.00  0.00  1.00  0.00  0.00  0.00  0.00  0.00
  WS02001212WS02001213    1.00   0.00  0.00  0.00  0.89  0.00  0.10  0.00  0.00  0.00
  WS02001211WS02001212    1.00   0.00  0.00  0.00  1.00  0.00  0.00  0.00  0.00  0.00
  WS02003072WS02003073    1.00   0.00  0.00  0.00  0.00  0.00  0.00  1.00  0.00  0.00
  WS02003069WS02003072    1.00   0.00  0.00  0.00  1.00  0.00  0.00  0.00  0.15  0.00
  WS02003060WS02003069    1.00   0.00  0.00  0.00  0.99  0.01  0.00  0.00  0.09  0.00
  WS02003059WS02003060    1.00   0.00  0.00  0.00  1.00  0.00  0.00  0.00  0.00  0.00
  HS02004901HS02004770    1.00   0.04  0.00  0.00  0.96  0.00  0.00  0.00  0.01  0.00
  HS02004876HS02004881    1.00   0.01  0.00  0.00  0.95  0.04  0.00  0.00  0.00  0.00
  HS02004870HS02004876    1.00   0.00  0.00  0.00  0.99  0.00  0.00  0.00  0.95  0.00
  HS02004842HS02004848    1.00   0.00  0.04  0.00  0.96  0.00  0.00  0.00  0.63  0.00
  HS02004837HS02004842    1.00   0.00  0.00  0.00  1.00  0.00  0.00  0.00  0.11  0.00
  HS02004830HS02004837    1.00   0.00  0.00  0.00  1.00  0.00  0.00  0.00  0.99  0.00
  HS02004824HS02004830    1.00   0.00  0.00  0.00  1.00  0.00  0.00  0.00  0.00  0.00
  HS02004817HS02004824    1.00   0.00  0.00  0.00  1.00  0.00  0.00  0.00  1.00  0.00
  HS02004770HS02004777    1.00   0.00  0.04  0.00  0.96  0.00  0.00  0.00  0.05  0.00
  HS02004799HS02004480    1.00   0.00  0.01  0.00  0.95  0.00  0.04  0.00  0.00  0.00
  HS02004792HS02004799    1.00   0.00  0.00  0.00  1.00  0.00  0.00  0.00  0.98  0.00
  HS02004788HS02004792    1.00   0.00  0.00  0.00  1.00  0.00  0.00  0.00  0.98  0.00
  HS02004785HS02004788    1.00   0.00  0.00  0.00  1.00  0.00  0.00  0.00  0.00  0.00
  HS02004777HS02004785    1.00   0.00  0.00  0.00  1.00  0.00  0.00  0.00  0.17  0.00
  HS02004480HS02004478    1.00   0.04  0.00  0.00  0.69  0.00  0.00  0.27  0.00  0.00
  HS02004479HS02004480    1.00   0.01  0.00  0.00  0.99  0.00  0.00  0.00  0.14  0.00
  HS02004862HS02004870    1.00   0.00  0.00  0.00  1.00  0.00  0.00  0.00  0.05  0.00
  HS02004848HS02004852    1.00   0.04  0.00  0.00  0.96  0.00  0.00  0.00  0.72  0.00
  HS02004856HS02004862    1.00   0.00  0.06  0.00  0.94  0.00  0.00  0.00  0.78  0.00
  HS02004852HS02004856    1.00   0.04  0.01  0.00  0.95  0.00  0.00  0.00  0.83  0.00
  HS02004802HS02004478    1.00   0.04  0.00  0.00  0.95  0.00  0.00  0.00  0.02  0.00
  HS02004478WS02006287    1.00   0.05  0.00  0.00  0.81  0.14  0.00  0.00  0.72  0.00
  HS02004817HS02004807    1.00   0.00  0.04  0.00  0.96  0.00  0.00  0.00  0.00  0.00
  HS02004807HS02004802    1.00   0.04  0.00  0.00  0.96  0.00  0.00  0.00  0.01  0.00
  YS02001759YS02001757    1.00   0.00  0.00  0.00  1.00  0.00  0.00  0.00  0.18  0.00
  YS02001762YS02001759    1.00   0.00  0.00  0.00  1.00  0.00  0.00  0.00  0.04  0.00
  YS02001765YS02001762    1.00   0.00  0.00  0.00  1.00  0.00  0.00  0.00  0.19  0.00
  YS02001770YS02001767    1.00   0.00  0.00  0.00  1.00  0.00  0.00  0.00  0.00  0.00
  YS02001774YS02001770    1.00   0.00  0.04  0.00  0.95  0.00  0.00  0.00  0.05  0.00
  YS02001779YS02001774    1.00   0.00  0.00  0.00  1.00  0.00  0.00  0.00  0.23  0.00
  YS02001649YS02001757    1.00   0.00  0.00  0.00  1.00  0.00  0.00  0.00  0.18  0.00
  YS02001767YS02001765    1.00   0.00  0.00  0.00  1.00  0.00  0.00  0.00  0.00  0.00
  YS02006561YS02001783    1.00   0.07  0.00  0.00  0.11  0.82  0.00  0.00  0.57  0.00
  YS02001783YS02001784    1.00   0.00  0.07  0.00  0.93  0.00  0.00  0.00  0.01  0.00
  YS02001784YS02001785    1.00   0.00  0.00  0.00  1.00  0.00  0.00  0.00  0.22  0.00
  YS02001788YS02001790    1.00   0.00  0.00  0.00  0.23  0.77  0.00  0.00  0.61  0.00
  YS02001790YS02001791    1.00   0.00  0.00  0.00  0.20  0.80  0.00  0.00  0.57  0.00
  YS02001791YS02001793    1.00   0.00  0.00  0.00  0.27  0.73  0.00  0.00  0.06  0.00
  YS02001910YS02001907    1.00   0.00  0.00  0.00  0.99  0.00  0.00  0.01  0.13  0.00
  YS02001786YS02001788    1.00   0.00  0.00  0.00  0.20  0.80  0.00  0.00  0.00  0.00
  YS02001915YS02001910    1.00   0.00  0.00  0.00  0.99  0.01  0.00  0.00  0.21  0.00
  YS02001918YS02001915    1.00   0.00  0.00  0.00  0.99  0.00  0.00  0.00  0.64  0.00
  YS02001923YS02001920    1.00   0.00  0.00  0.00  1.00  0.00  0.00  0.00  1.00  0.00
  YS02001926YS02001923    1.00   0.00  0.02  0.00  0.00  0.00  0.98  0.00  0.00  0.00
  YS02001929YS02001926    1.00   0.00  0.04  0.00  0.96  0.00  0.00  0.00  0.87  0.00
  YS02001920YS02001918    1.00   0.00  0.00  0.00  1.00  0.00  0.00  0.00  0.00  0.00
  YS02001629YS02163301    1.00   0.05  0.00  0.00  0.94  0.00  0.00  0.00  0.00  0.00
  YS02001619YS02001622    1.00   0.04  0.00  0.00  0.96  0.00  0.00  0.00  0.00  0.00
  YS02001622YS02001625    1.00   0.04  0.00  0.00  0.96  0.00  0.00  0.00  0.10  0.00
  YS02001625YS02001629    1.00   0.04  0.03  0.00  0.91  0.00  0.02  0.00  0.00  0.00
  YS02163301YS02001633    1.00   0.00  0.05  0.00  0.95  0.00  0.00  0.00  0.00  0.00
  YS02163601YS02164001    1.00   0.00  0.02  0.00  0.98  0.00  0.00  0.00  0.00  0.00
  YS02164001YS02001641    1.00   0.00  0.02  0.00  0.98  0.00  0.00  0.00  0.07  0.00
  YS02001641YS02001644    1.00   0.00  0.00  0.00  1.00  0.00  0.00  0.00  0.00  0.00
  YS02001647YS02001649    1.00   0.00  0.06  0.00  0.93  0.00  0.00  0.00  0.01  0.00
  YS02006553YS02006556    1.00   0.01  0.00  0.00  0.99  0.00  0.00  0.00  0.03  0.00
  YS02006556YS02006558    1.00   0.00  0.00  0.00  1.00  0.00  0.00  0.00  0.00  0.00
  YSB6556YSB1171          1.00   0.01  0.02  0.00  0.96  0.00  0.00  0.00  0.00  0.00
  YS02001907YS02006553    1.00   0.00  0.01  0.00  0.99  0.00  0.00  0.00  0.00  0.00
  YS02006558YS02006561    1.00   0.07  0.00  0.00  0.00  0.93  0.00  0.00  0.57  0.00
  YS02001633YS02163601    1.00   0.00  0.00  0.00  1.00  0.00  0.00  0.00  0.18  0.00
  YS02001644YS02001647    1.00   0.00  0.07  0.00  0.93  0.00  0.00  0.00  0.00  0.00
  YS02001745YS02001748    1.00   0.00  0.00  0.00  0.90  0.00  0.00  0.10  0.03  0.00
  YS02001748YS02001751    1.00   0.00  0.00  0.00  0.96  0.04  0.00  0.00  0.16  0.00
  YS02001751YS02001754    1.00   0.00  0.00  0.00  0.92  0.00  0.00  0.07  0.02  0.00
  YS02001754YS02001757    1.00   0.00  0.00  0.00  1.00  0.00  0.00  0.00  0.23  0.00
  YS02001882YS02001884    1.00   0.05  0.00  0.00  0.94  0.00  0.00  0.00  0.00  0.00
  YS02001884YS02001887    1.00   0.02  0.01  0.00  0.97  0.00  0.00  0.00  0.00  0.00
  YS02001890YS02001895    1.00   0.00  0.06  0.00  0.94  0.00  0.00  0.00  0.00  0.00
  YS02001895YS02001898    1.00   0.06  0.00  0.00  0.93  0.00  0.01  0.00  0.00  0.00
  YS02001898YS02001901    1.00   0.06  0.00  0.00  0.94  0.00  0.00  0.00  0.02  0.00
  YS02001901YS02001904    1.00   0.06  0.00  0.00  0.94  0.00  0.00  0.00  0.00  0.00
  YS02001904YS02001907    1.00   0.00  0.06  0.00  0.94  0.00  0.00  0.00  0.00  0.00
  YS02001887YS02001890    1.00   0.00  0.00  0.00  0.99  0.00  0.01  0.00  0.00  0.00
  YS02001652YS02001649    1.00   0.00  0.00  0.00  1.00  0.00  0.00  0.00  0.21  0.00
  YS02001655YS02001652    1.00   0.00  0.00  0.00  0.92  0.00  0.00  0.07  0.02  0.00
  YS02001658YS02001655    1.00   0.00  0.05  0.00  0.91  0.04  0.00  0.00  0.07  0.00
  YS02001661YS02001658    1.00   0.05  0.00  0.00  0.90  0.05  0.00  0.00  0.03  0.00
  YS02001664YS02001661    1.00   0.04  0.00  0.00  0.91  0.06  0.00  0.00  0.23  0.00
  YSB1154YSB6556          1.00   0.04  0.00  0.00  0.96  0.00  0.00  0.00  0.02  0.00
  YSB1174YSB1171          1.00   0.02  0.01  0.00  0.97  0.00  0.00  0.00  0.00  0.00
  YSB1171HS02004479       1.00   0.01  0.00  0.00  0.98  0.00  0.00  0.00  0.12  0.00
  HS02004881HS02006253    1.00   0.02  0.00  0.00  0.46  0.01  0.00  0.50  0.28  0.00
  YS02001793JiankangQianchi    1.00   0.00  0.00  0.00  0.70  0.30  0.00  0.00  0.51  0.00
  YS02001757CaochengTiaoxuchi    1.00   0.00  0.09  0.00  0.90  0.01  0.00  0.00  0.00  0.00
  WSF200WS02003060        1.00   0.00  0.02  0.00  0.94  0.04  0.00  0.00  0.59  0.00
  1                       1.00   0.00  0.00  0.00  0.00  1.00  0.00  0.00  0.55  0.00
  
  
  *************************
  Conduit Surcharge Summary
  *************************
  
  ----------------------------------------------------------------------------
                                                           Hours        Hours 
                         --------- Hours Full --------   Above Full   Capacity
  Conduit                Both Ends  Upstream  Dnstream   Normal Flow   Limited
  ----------------------------------------------------------------------------
  WS02006229WS02006228        2.13      2.18      2.13      2.87         2.13
  WS02006256WS02006235        4.79      4.79      6.31      3.28         0.01
  WS02006253WS02006251        0.54      0.54      0.58      0.01         0.02
  WS02006252WS02006251        0.51      0.51      0.93      0.80         0.01
  WS02006251WS02006249        0.56      0.56      0.62      0.32         0.18
  WS02006249WS02006248        0.57      0.57      0.62      1.56         0.01
  WS02006248WS02006247        0.62      0.62      0.72      0.01         0.01
  WS02006247WS02006245        0.72      0.75      0.72      2.21         0.71
  WS02006245WS02006243        0.75      0.75      0.81      0.03         0.07
  WS02006243WS02006242        0.84      0.84      1.03      0.01         0.01
  WS02006242WS02006240        0.99      0.99      1.10      0.71         0.01
  WS02006240WS02006239        1.01      1.01      1.08      0.27         0.20
  WS02006239WS02006238        1.19      1.19      1.31      0.30         0.26
  WS02006238WS02006235        1.30      1.30      1.47      0.01         0.01
  WS02006235WS02006234        1.09      1.09      1.26      4.44         0.01
  WS02006234WS02006232        1.16      1.16      1.76      0.36         0.37
  WS02006232WS02006231        0.63      0.63      1.76      0.46         0.01
  WS02006231WS02006230        0.36      0.36      0.69      4.95         0.01
  WS02006230WS02006229        2.43      2.67      2.43      5.49         2.42
  WS02006228WS02006109        2.16      2.29      2.16      3.48         2.16
  WS02006112WS02006115        0.01      0.01      0.92      0.01         0.01
  WS02006111WS02006112        0.01      0.01      2.85      0.01         0.01
  WS02006110WS02006113        0.01      0.01      2.23      0.01         0.01
  WS02006109WS02006110        0.56      0.56      2.29      0.58         0.01
  WS02004405WS02004406        0.01      0.01      0.01      0.72         0.01
  WS02004404WS02004405        0.01      0.01      0.01      5.46         0.01
  WS02003072WS02003073        0.01      0.01      0.01      5.47         0.01
  HS02004480HS02004478        0.01      0.01      0.01      0.26         0.01
  YS02001759YS02001757        5.64      5.64      5.67      0.01         0.01
  YS02001762YS02001759        5.63      5.63      5.64      0.01         0.01
  YS02001765YS02001762        5.61      5.61      5.63      0.01         0.01
  YS02001770YS02001767        5.60      5.60      5.60      0.01         0.67
  YS02001774YS02001770        5.59      5.59      5.62      0.01         0.01
  YS02001779YS02001774        5.43      5.43      5.62      0.01         0.01
  YS02001649YS02001757        5.63      5.63      5.67      0.01         0.01
  YS02001767YS02001765        5.60      5.60      5.61      0.01         0.01
  YS02006561YS02001783        0.01      0.01      0.16      0.01         0.01
  YS02001783YS02001784        0.16      0.16      0.18      0.01         0.01
  YS02001784YS02001785        0.16      0.18      0.16      1.33         0.16
  YS02001788YS02001790        0.15      0.15      0.58      0.01         0.01
  YS02001790YS02001791        0.58      0.58      0.66      0.01         0.01
  YS02001791YS02001793        0.66      0.66      1.28      0.01         0.01
  YS02001910YS02001907        0.01      0.01      0.81      0.01         0.01
  YS02001786YS02001788        0.15      0.16      0.15      1.01         0.15
  YS02001629YS02163301        5.58      5.58      5.59      0.01         0.01
  YS02001619YS02001622        5.16      5.16      5.23      0.01         0.02
  YS02001622YS02001625        5.23      5.23      5.58      0.01         0.01
  YS02001625YS02001629        5.19      5.19      5.58      0.01         0.01
  YS02163301YS02001633        5.59      5.59      5.61      0.01         0.01
  YS02163601YS02164001        5.61      5.61      5.63      0.01         0.01
  YS02164001YS02001641        5.61      5.61      5.61      0.01         0.02
  YS02001641YS02001644        5.61      5.61      5.61      0.05         0.83
  YS02001647YS02001649        5.52      5.52      5.63      0.01         0.01
  YS02006553YS02006556        0.01      0.01      0.92      0.01         0.01
  YS02006556YS02006558        0.17      0.17      0.98      0.01         0.01
  YS02001907YS02006553        1.37      1.37      1.54      0.01         0.01
  YS02006558YS02006561        0.01      0.01      0.01      1.22         0.01
  YS02001633YS02163601        5.60      5.60      5.63      0.01         0.01
  YS02001644YS02001647        5.52      5.52      5.61      0.01         0.01
  YS02001745YS02001748        0.01      0.01      4.91      0.01         0.01
  YS02001748YS02001751        4.96      4.96      5.18      0.01         0.01
  YS02001751YS02001754        5.18      5.18      5.44      0.01         0.01
  YS02001754YS02001757        5.48      5.48      5.67      0.01         0.01
  YS02001904YS02001907        0.01      0.01      0.93      0.01         0.01
  YS02001652YS02001649        5.54      5.54      5.63      0.01         0.01
  YS02001655YS02001652        5.21      5.21      5.47      0.01         0.01
  YS02001658YS02001655        4.94      4.94      5.21      0.01         0.01
  YS02001661YS02001658        0.09      0.09      4.94      0.01         0.01
  YS02001664YS02001661        0.01      0.01      0.50      0.01         0.01
  HS02004881HS02006253        0.01      0.01      0.27      0.01         0.01
  YS02001793JiankangQianchi        1.08      1.08      3.60      0.01         0.01
  YS02001757CaochengTiaoxuchi        4.91      4.91      5.67      0.01         0.01
  
  
  ***************
  Pumping Summary
  ***************
  
  ---------------------------------------------------------------------------------------------------------
                                                  Min       Avg       Max     Total     Power    % Time Off
                        Percent   Number of      Flow      Flow      Flow    Volume     Usage    Pump Curve
  Pump                 Utilized   Start-Ups       LPS       LPS       LPS  10^6 ltr     Kw-hr    Low   High
  ---------------------------------------------------------------------------------------------------------
  CC-Pump-1               42.52           6      0.00    127.64    200.00     1.440      1.23    0.0    0.0
  CC-Pump-2               23.40           4      0.00    104.98    200.00     0.720      0.79    0.0    0.0
  JK-Pump-1               48.95           6      0.00    202.86    300.00     2.435     42.88    0.0    0.0
  JK-Pump-2               42.57           5      0.00    367.50    683.00     3.776     63.62    0.0   94.9
  XR-Pump-1              100.00           1      0.00     95.00     95.00     2.679     40.76    0.0    0.0
  XR-Pump-2               95.74           3      0.00     91.60     95.00     2.394     34.88    0.0    0.0
  XR-Pump-3               91.48           4      0.00     91.43     95.00     2.280     32.41    0.0    0.0
  XR-Pump-4               91.48           4      0.00     91.43     95.00     2.280     32.41    0.0    0.0
  
  
  ***************************
  Link Pollutant Load Summary
  ***************************
  
  ------------------------------------------------------------------------------------------
                                 COD            SS            TN            TP         NH4-N
  Link                            kg            kg            kg            kg            kg
  ------------------------------------------------------------------------------------------
  WS02003066WSF200           477.502       856.414        14.643         1.379         7.978
  WS02006287WS02006284       174.849       317.557         7.541         0.815         4.359
  WS02006284WS02006280       175.266       318.229         7.581         0.820         4.384
  WS02006280WS02006229       175.242       318.179         7.581         0.820         4.384
  WS02006229WS02006228       482.464       865.287        14.436         1.341         7.823
  WS02006256WS02006235       117.596       206.168         2.864         0.234         1.482
  WS02006253WS02006251        34.214        64.648         0.799         0.062         0.403
  WS02006252WS02006251       170.187       302.375         3.551         0.253         1.737
  WS02006251WS02006249       196.222       352.565         4.180         0.304         2.057
  WS02006249WS02006248       191.713       344.524         4.081         0.296         2.008
  WS02006248WS02006247       192.127       345.288         4.088         0.297         2.011
  WS02006247WS02006245       191.999       345.068         4.084         0.296         2.009
  WS02006245WS02006243       191.459       344.201         4.065         0.294         1.998
  WS02006243WS02006242       192.156       345.462         4.082         0.296         2.008
  WS02006242WS02006240       193.973       348.674         4.125         0.299         2.030
  WS02006240WS02006239       196.782       353.642         4.191         0.304         2.063
  WS02006239WS02006238       200.525       359.988         4.297         0.314         2.119
  WS02006238WS02006235       202.504       363.120         4.354         0.319         2.150
  WS02006235WS02006234       309.496       551.068         6.934         0.528         3.482
  WS02006234WS02006232       309.329       550.749         6.935         0.528         3.484
  WS02006232WS02006231       308.828       549.879         6.918         0.527         3.474
  WS02006231WS02006230       308.592       549.523         6.913         0.527         3.472
  WS02006230WS02006229       309.534       551.303         6.950         0.531         3.493
  WS02006228WS02006109       481.778       864.098        14.405         1.337         7.804
  WS02006116WS02004401       489.971       877.943        15.099         1.425         8.235
  WS02006115WS02006116       491.053       879.831        15.130         1.427         8.252
  WS02006113WS02006111       488.245       874.216        15.122         1.429         8.256
  WS02006112WS02006115       492.245       881.896        15.180         1.433         8.281
  WS02006111WS02006112       487.763       873.362        15.107         1.427         8.248
  WS02006110WS02006113       488.731       875.053        15.147         1.431         8.271
  WS02006109WS02006110       489.899       877.050        15.206         1.438         8.306
  WS02004411WS02004412       480.926       862.204        14.832         1.400         8.092
  WS02004401WS02004402       488.655       875.659        15.049         1.419         8.207
  WS02004413WS02003067       478.115       857.440        14.676         1.383         7.998
  WS02004412WS02004413       479.652       860.037        14.770         1.394         8.054
  WS02004410WS02004411       481.899       863.859        14.876         1.405         8.117
  WS02004409WS02004410       482.871       865.523        14.920         1.410         8.142
  WS02004407WS02004409       483.562       866.707        14.944         1.412         8.156
  WS02004406WS02004407       483.614       866.787        14.939         1.411         8.152
  WS02004405WS02004406       485.477       869.954        15.035         1.422         8.209
  WS02004404WS02004405       486.631       871.994        15.044         1.422         8.211
  WS02004403WS02004404       486.306       871.581        14.966         1.411         8.160
  WS02004402WS02004403       487.482       873.622        15.012         1.416         8.186
  WS02004139WS02001211      1460.449      2360.443       131.245        16.246        81.555
  WS02004138WS02004139      1458.440      2357.227       131.052        16.222        81.435
  WS02003067WS02003066       477.666       856.689        14.653         1.380         7.984
  WS02001213WS02003059      1511.075      2441.438       136.108        16.854        84.594
  WS02001212WS02001213      1511.416      2441.985       136.139        16.858        84.614
  WS02001211WS02001212      1511.566      2442.227       136.153        16.859        84.623
  WS02003072WS02003073      2103.407      3481.423       161.845        19.620        99.509
  WS02003069WS02003072      2106.012      3485.775       162.048        19.645        99.635
  WS02003060WS02003069      2104.929      3484.084       161.925        19.629        99.557
  WS02003059WS02003060      1513.118      2444.702       136.306        16.878        84.718
  HS02004901HS02004770         5.796        10.984         0.109         0.008         0.051
  HS02004876HS02004881        21.543        41.441         0.526         0.041         0.267
  HS02004870HS02004876        16.330        31.269         0.437         0.036         0.225
  HS02004842HS02004848         2.945         5.415         0.063         0.004         0.029
  HS02004837HS02004842         7.550        12.734         0.531         0.063         0.323
  HS02004830HS02004837        55.763        93.406         4.366         0.533         2.693
  HS02004824HS02004830        56.513        94.608         4.438         0.542         2.738
  HS02004817HS02004824        68.504       117.666         4.708         0.560         2.873
  HS02004770HS02004777        22.009        42.070         0.459         0.031         0.210
  HS02004799HS02004480        79.768       146.615         2.659         0.262         1.455
  HS02004792HS02004799        72.830       132.647         2.579         0.261         1.426
  HS02004788HS02004792        44.005        79.854         1.887         0.200         1.076
  HS02004785HS02004788        23.508        44.482         0.611         0.050         0.306
  HS02004777HS02004785        22.945        43.568         0.561         0.044         0.275
  HS02004480HS02004478        99.548       185.276         2.953         0.281         1.588
  HS02004479HS02004480        23.957        45.308         0.690         0.068         0.379
  HS02004862HS02004870        12.144        22.794         0.354         0.031         0.186
  HS02004848HS02004852         4.219         7.876         0.088         0.006         0.040
  HS02004856HS02004862         7.713        14.876         0.155         0.010         0.073
  HS02004852HS02004856         4.214         7.867         0.088         0.006         0.040
  HS02004802HS02004478        75.639       132.852         4.616         0.538         2.789
  HS02004478WS02006287       175.040       317.884         7.556         0.817         4.368
  HS02004817HS02004807        67.147       115.493         4.580         0.544         2.793
  HS02004807HS02004802        76.242       133.811         4.675         0.545         2.825
  YS02001759YS02001757       232.397       410.613         4.869         0.336         2.395
  YS02001762YS02001759       118.517       210.928         2.687         0.190         1.345
  YS02001765YS02001762       117.765       209.523         2.694         0.192         1.351
  YS02001770YS02001767       115.285       205.501         2.391         0.152         1.158
  YS02001774YS02001770         9.487        16.760         0.204         0.013         0.100
  YS02001779YS02001774         8.582        14.934         0.296         0.028         0.165
  YS02001649YS02001757       251.446       433.383         5.229         0.368         2.521
  YS02001767YS02001765       117.650       209.268         2.704         0.193         1.358
  YS02006561YS02001783       478.208       838.710        11.264         0.896         5.771
  YS02001783YS02001784       478.134       838.605        11.261         0.895         5.769
  YS02001784YS02001785       485.501       850.409        11.975         0.985         6.215
  YS02001788YS02001790       486.137       851.443        12.048         0.994         6.261
  YS02001790YS02001791       487.143       853.065        12.147         1.006         6.324
  YS02001791YS02001793       487.179       853.131        12.145         1.006         6.322
  YS02001910YS02001907       158.721       272.811         4.917         0.430         2.660
  YS02001786YS02001788       485.728       850.780        12.003         0.988         6.233
  YS02001915YS02001910       158.643       272.651         4.867         0.423         2.627
  YS02001918YS02001915        77.269       126.679         3.111         0.325         1.787
  YS02001923YS02001920        57.333        94.826         1.163         0.081         0.569
  YS02001926YS02001923        56.987        94.274         1.125         0.076         0.544
  YS02001929YS02001926        56.744        93.876         1.094         0.072         0.525
  YS02001920YS02001918        77.245       126.688         3.082         0.321         1.768
  YS02001629YS02163301        64.466       110.443         1.384         0.088         0.643
  YS02001619YS02001622        66.945       114.256         1.443         0.091         0.669
  YS02001622YS02001625        65.913       112.669         1.418         0.090         0.657
  YS02001625YS02001629        64.877       111.128         1.393         0.088         0.646
  YS02163301YS02001633        65.649       112.546         1.404         0.090         0.653
  YS02163601YS02164001       178.317       303.734         3.678         0.258         1.762
  YS02164001YS02001641       178.052       303.307         3.660         0.256         1.752
  YS02001641YS02001644       179.137       305.127         3.672         0.257         1.757
  YS02001647YS02001649       220.037       376.658         4.541         0.318         2.191
  YS02006553YS02006556       344.982       602.912         8.456         0.697         4.398
  YS02006556YS02006558       344.941       602.833         8.425         0.693         4.377
  YSB6556YSB1171              13.124        24.997         0.307         0.028         0.162
  YS02001907YS02006553       345.046       603.046         8.458         0.698         4.400
  YS02006558YS02006561       478.256       838.792        11.263         0.895         5.770
  YS02001633YS02163601       178.996       304.767         3.660         0.254         1.748
  YS02001644YS02001647       225.379       385.446         4.615         0.323         2.222
  YS02001745YS02001748        95.320       166.782         2.170         0.144         1.074
  YS02001748YS02001751        95.657       167.138         2.328         0.167         1.178
  YS02001751YS02001754        94.907       165.906         2.335         0.169         1.186
  YS02001754YS02001757        95.738       167.184         2.503         0.192         1.295
  YS02001882YS02001884         1.900         3.228         0.042         0.004         0.022
  YS02001884YS02001887         5.054         8.788         0.108         0.009         0.055
  YS02001890YS02001895       187.603       332.119         3.570         0.269         1.754
  YS02001895YS02001898       187.447       331.894         3.564         0.269         1.751
  YS02001898YS02001901       187.307       331.687         3.560         0.268         1.749
  YS02001901YS02001904       187.305       331.715         3.578         0.271         1.761
  YS02001904YS02001907       187.876       332.666         3.656         0.281         1.810
  YS02001887YS02001890       188.464       333.450         3.631         0.277         1.792
  YS02001652YS02001649        60.055       104.929         1.307         0.095         0.617
  YS02001655YS02001652        60.864       106.239         1.328         0.097         0.627
  YS02001658YS02001655        60.467       105.564         1.245         0.086         0.572
  YS02001661YS02001658        69.227       121.150         1.422         0.098         0.654
  YS02001664YS02001661        82.998       143.635         1.728         0.118         0.793
  YSB1154YSB6556              12.632        24.209         0.247         0.020         0.124
  YSB1174YSB1171               9.007        17.363         0.211         0.019         0.110
  YSB1171HS02004479           23.881        45.194         0.683         0.067         0.375
  HS02004881HS02006253        24.335        46.998         0.575         0.044         0.290
  YS02001793JiankangQianchi       493.083       862.669        12.346         1.025         6.433
  YS02001757CaochengTiaoxuchi       466.123       820.432         9.851         0.698         4.823
  WSF200WS02003060           477.686       856.783        14.654         1.380         7.985
  1                         2117.535      3504.457       163.119        19.779       100.303
  CC-Pump-1                  112.691       200.115         2.346         0.167         1.146
  CC-Pump-2                   57.256       101.867         1.188         0.085         0.581
  JK-Pump-1                  116.594       204.878         2.791         0.225         1.438
  JK-Pump-2                  221.241       392.986         5.129         0.409         2.625
  XR-Pump-1                  420.968       679.534        38.142         4.727        23.718
  XR-Pump-2                  364.468       589.059        32.760         4.055        20.358
  XR-Pump-3                  336.631       544.521        30.088         3.721        18.688
  XR-Pump-4                  336.631       544.521        30.088         3.721        18.688
  

  Analysis begun on:  Sun Jul 11 09:49:11 2021
  Analysis ended on:  Sun Jul 11 09:49:14 2021
  Total elapsed time: 00:00:03