
  EPA STORM WATER MANAGEMENT MODEL - VERSION 5.1 (Build 5.3.0.dev0)
  --------------------------------------------------------------

  WARNING 04: minimum elevation drop used for Conduit WS02004404WS02004405
  WARNING 03: negative offset ignored for Link YS02001904YS02001907
  
  *********************************************************
  NOTE: The summary statistics displayed in this report are
  based on results found at every computational time step,  
  not just on results from each reporting time step.
  *********************************************************
  
  ****************
  Analysis Options
  ****************
  Flow Units ............... LPS
  Process Models:
    Rainfall/Runoff ........ YES
    RDII ................... NO
    Snowmelt ............... NO
    Groundwater ............ NO
    Flow Routing ........... YES
    Ponding Allowed ........ NO
    Water Quality .......... YES
  Infiltration Method ...... HORTON
  Flow Routing Method ...... DYNWAVE
  Surcharge Method ......... EXTRAN
  Starting Date ............ 08/28/2015 08:00:00
  Ending Date .............. 08/28/2015 15:50:00
  Antecedent Dry Days ...... 8.0
  Report Time Step ......... 00:01:00
  Wet Time Step ............ 00:01:00
  Dry Time Step ............ 00:01:00
  Routing Time Step ........ 5.00 sec
  Variable Time Step ....... YES
  Maximum Trials ........... 8
  Number of Threads ........ 4
  Head Tolerance ........... 0.001500 m
  
  
  **************************        Volume         Depth
  Runoff Quantity Continuity     hectare-m            mm
  **************************     ---------       -------
  Total Precipitation ......         2.691         5.892
  Evaporation Loss .........         0.000         0.000
  Infiltration Loss ........         0.576         1.261
  Surface Runoff ...........         1.571         3.440
  Final Storage ............         0.544         1.192
  Continuity Error (%) .....        -0.022
  
  
  **************************           COD            SS            TN            TP         NH4-N
  Runoff Quality Continuity             kg            kg            kg            kg            kg
  **************************    ----------    ----------    ----------    ----------    ----------
  Initial Buildup ..........     41378.656     70582.865      1804.177       168.684      1032.807
  Surface Buildup ..........        14.889        19.874         2.897         0.267         1.713
  Wet Deposition ...........         0.000         0.000         0.000         0.000         0.000
  Sweeping Removal .........         0.000         0.000         0.000         0.000         0.000
  Infiltration Loss ........        28.916        51.025         0.570         0.038         0.268
  BMP Removal ..............         0.000         0.000         0.000         0.000         0.000
  Surface Runoff ...........       953.381      1631.846        19.258         1.251         9.079
  Remaining Buildup ........     40410.939     68919.344      1787.239       167.661      1025.170
  Continuity Error (%) .....         0.001         0.001         0.000         0.000         0.000
  
  
  **************************        Volume        Volume
  Flow Routing Continuity        hectare-m      10^6 ltr
  **************************     ---------     ---------
  Dry Weather Inflow .......         0.616         6.165
  Wet Weather Inflow .......         1.570        15.705
  Groundwater Inflow .......         0.000         0.000
  RDII Inflow ..............         0.000         0.000
  External Inflow ..........         0.102         1.024
  External Outflow .........         1.536        15.364
  Flooding Loss ............         0.408         4.083
  Evaporation Loss .........         0.000         0.000
  Exfiltration Loss ........         0.000         0.000
  Initial Stored Volume ....         0.076         0.761
  Final Stored Volume ......         0.510         5.104
  Continuity Error (%) .....        -3.791
  
  
  **************************           COD            SS            TN            TP         NH4-N
  Quality Routing Continuity            kg            kg            kg            kg            kg
  **************************    ----------    ----------    ----------    ----------    ----------
  Dry Weather Inflow .......      1541.201      2465.922       147.955        18.494        92.472
  Wet Weather Inflow .......       953.095      1631.402        19.251         1.251         9.076
  Groundwater Inflow .......         0.000         0.000         0.000         0.000         0.000
  RDII Inflow ..............         0.000         0.000         0.000         0.000         0.000
  External Inflow ..........       183.418       293.469        17.608         2.201        11.005
  External Outflow .........      2036.385      3321.092       164.498        20.070       101.510
  Flooding Loss ............       227.408       384.104         5.593         0.448         2.867
  Exfiltration Loss ........         0.000         0.000         0.000         0.000         0.000
  Mass Reacted .............         0.000         0.000         0.000         0.000         0.000
  Initial Stored Mass ......         0.000         0.000         0.000         0.000         0.000
  Final Stored Mass ........       311.125       515.590        10.355         0.970         5.667
  Continuity Error (%) .....         3.839         3.872         2.364         2.083         2.229
  
  
  *************************
  Highest Continuity Errors
  *************************
  Node YS02001774 (26.03%)
  Node HS02004842 (24.37%)
  Node YS02001884 (18.70%)
  Node JK-storage (-17.24%)
  Node WS02006253 (5.65%)
  
  
  ***************************
  Time-Step Critical Elements
  ***************************
  Link WS02006252WS02006251 (57.50%)
  Link WS02006280WS02006229 (12.32%)
  Link YS02001793JiankangQianchi (7.57%)
  Link WS02006238WS02006235 (6.46%)
  Link WS02006235WS02006234 (2.78%)
  
  
  ********************************
  Highest Flow Instability Indexes
  ********************************
  Link WS02006113WS02006111 (44)
  Link WS02006111WS02006112 (21)
  Link YS02001779YS02001774 (16)
  Link YS02001774YS02001770 (15)
  Link YS02001765YS02001762 (13)
  
  
  *************************
  Routing Time Step Summary
  *************************
  Minimum Time Step           :     0.14 sec
  Average Time Step           :     1.47 sec
  Maximum Time Step           :     5.00 sec
  Percent in Steady State     :    -0.00
  Average Iterations per Step :     3.22
  Percent Not Converging      :    10.45
  
  
  ***************************
  Subcatchment Runoff Summary
  ***************************
  
  ------------------------------------------------------------------------------------------------------------------------------
                            Total      Total      Total      Total     Imperv       Perv      Total       Total     Peak  Runoff
                           Precip      Runon       Evap      Infil     Runoff     Runoff     Runoff      Runoff   Runoff   Coeff
  Subcatchment                 mm         mm         mm         mm         mm         mm         mm    10^6 ltr      LPS
  ------------------------------------------------------------------------------------------------------------------------------
  sub0                       5.89       0.00       0.00       0.41       5.43       0.01       5.44        0.00     1.76   0.923
  sub1                       5.89       0.00       0.00       0.65       5.16       0.00       5.16        0.03    10.23   0.876
  sub2                       5.89       0.00       0.00       2.18       3.63       0.00       3.63        0.03     9.18   0.617
  sub3                       5.89       0.00       0.00       2.18       3.60       0.00       3.60        0.08    19.14   0.611
  sub4                       5.89       0.00       0.00       0.65       5.02       0.00       5.02        0.10    21.61   0.852
  sub5                       5.89       0.00       0.00       0.41       5.39       0.00       5.39        0.06    18.19   0.915
  sub7                       5.89       0.00       0.00       0.53       5.30       0.00       5.30        0.02     6.18   0.900
  sub8                       5.89       0.00       0.00       0.53       5.29       0.00       5.29        0.03    11.09   0.899
  sub9                       5.89       0.00       0.00       0.53       5.29       0.00       5.29        0.03     8.25   0.898
  sub10                      5.89       0.00       0.00       0.47       5.34       0.00       5.34        0.06    18.07   0.906
  sub11                      5.89       0.00       0.00       0.47       5.35       0.00       5.36        0.06    20.75   0.909
  sub12                      5.89       0.00       0.00       0.76       5.08       0.00       5.08        0.04    16.78   0.863
  sub14                      5.89       0.00       0.00       0.53       5.29       0.00       5.29        0.05    16.15   0.898
  sub15                      5.89       0.00       0.00       1.77       4.06       0.00       4.07        0.07    22.00   0.690
  sub16                      5.89       0.00       0.00       1.94       3.91       0.00       3.91        0.04    14.96   0.664
  sub17                      5.89       0.00       0.00       1.88       3.96       0.00       3.97        0.03    12.19   0.674
  sub22                      5.89       0.00       0.00       2.53       3.32       0.00       3.32        0.21    70.73   0.564
  sub23                      5.89       0.00       0.00       2.18       3.67       0.00       3.67        0.18    59.99   0.623
  sub60                      5.89       0.00       0.00       0.71       3.78       0.00       3.78        1.15   108.11   0.642
  sub61                      5.89       0.00       0.00       1.00       3.98       0.00       3.98        1.23   136.81   0.675
  sub62                      5.89       0.00       0.00       0.47       4.29       0.00       4.29        1.32   139.48   0.727
  sub63                      5.89       0.00       0.00       1.71       3.52       0.00       3.52        1.07   128.09   0.598
  sub64                      5.89       0.00       0.00       0.88       3.62       0.00       3.62        1.10   102.62   0.614
  sub65                      5.89       0.00       0.00       0.77       3.67       0.00       3.67        1.13   104.08   0.623
  sub66                      5.89       0.00       0.00       1.71       3.14       0.00       3.14        0.96    94.31   0.533
  sub67                      5.89       0.00       0.00       0.47       4.65       0.00       4.65        1.44   180.35   0.789
  sub68                      5.89       0.00       0.00       0.82       4.22       0.00       4.22        1.30   151.57   0.716
  sub69                      5.89       0.00       0.00       0.88       4.49       0.00       4.49        1.05   151.54   0.762
  sub70                      5.89       4.58       0.00       3.55       5.68       0.01       5.69        1.30   123.00   0.543
  sub71                      5.89       0.00       0.00       0.47       4.12       0.00       4.12        0.97    97.05   0.700
  sub72                      5.89       0.00       0.00       0.41       3.02       0.00       3.02        0.61    46.40   0.512
  1                          5.89       5.54       0.00       1.33       5.93       0.99       6.92        1.63   119.56   0.605
  2                          5.89       0.00       0.00       2.92       1.35       0.34       1.69        0.68    93.31   0.287
  
  
  ****************************
  Subcatchment Washoff Summary
  ****************************
  
  ------------------------------------------------------------------------------------------
                                 COD            SS            TN            TP         NH4-N
  Subcatchment                    kg            kg            kg            kg            kg
  ------------------------------------------------------------------------------------------
  sub0                         0.910         1.707         0.015         0.001         0.007
  sub1                         3.670         6.958         0.069         0.005         0.033
  sub2                         2.092         3.814         0.046         0.003         0.021
  sub3                         5.048         9.072         0.110         0.007         0.050
  sub4                         8.003        15.039         0.164         0.009         0.078
  sub5                         8.463        15.853         0.148         0.011         0.071
  sub7                         1.951         3.780         0.037         0.002         0.018
  sub8                         2.935         5.795         0.059         0.003         0.028
  sub9                         2.487         4.844         0.048         0.003         0.023
  sub10                        7.027        13.342         0.128         0.009         0.061
  sub11                        6.989        13.470         0.130         0.009         0.062
  sub12                        5.862        11.123         0.104         0.008         0.050
  sub14                        5.280        10.186         0.100         0.006         0.048
  sub15                        6.180        11.352         0.121         0.009         0.056
  sub16                        3.942         7.256         0.076         0.006         0.035
  sub17                        3.610         6.584         0.067         0.005         0.031
  sub22                       18.219        32.760         0.353         0.026         0.163
  sub23                       11.197        20.902         0.248         0.016         0.112
  sub60                       61.287       104.061         1.300         0.075         0.621
  sub61                       77.767       131.811         1.505         0.098         0.721
  sub62                       81.962       141.436         1.685         0.101         0.805
  sub63                       58.303        97.615         1.252         0.084         0.571
  sub64                       73.081       119.402         1.398         0.098         0.662
  sub65                       74.922       122.944         1.445         0.099         0.686
  sub66                       44.041        72.783         0.980         0.061         0.452
  sub67                      123.437       211.852         2.241         0.159         1.078
  sub68                       87.488       150.175         1.750         0.112         0.831
  sub69                       82.160       143.554         1.588         0.107         0.753
  sub70                      124.397       216.588         2.609         0.173         1.204
  sub71                       54.206        94.243         1.193         0.065         0.568
  sub72                       35.811        57.358         0.704         0.046         0.337
  1                           67.143       117.833         1.456         0.097         0.662
  2                           10.068        16.499         0.326         0.019         0.136
  ------------------------------------------------------------------------------------------
  System                    1159.937      1991.988        23.454         1.531        11.036
  
  
  ******************
  Node Depth Summary
  ******************
  
  ---------------------------------------------------------------------------------
                                 Average  Maximum  Maximum  Time of Max    Reported
                                   Depth    Depth      HGL   Occurrence   Max Depth
  Node                 Type       Meters   Meters   Meters  days hr:min      Meters
  ---------------------------------------------------------------------------------
  WS02001211           JUNCTION     0.70     0.79     5.63     0  04:42        0.79
  WS02001212           JUNCTION     0.41     0.51     5.57     0  04:41        0.51
  WS02001213           JUNCTION     0.64     0.76     5.52     0  04:40        0.76
  WS02003069           JUNCTION     0.43     0.58     5.17     0  04:39        0.58
  WS02003072           JUNCTION     0.50     0.64     5.01     0  04:40        0.64
  WS02003073           JUNCTION     0.30     0.40     4.46     0  04:41        0.40
  WS02003060           JUNCTION     0.38     0.52     5.45     0  04:39        0.52
  WS02003066           JUNCTION     0.21     0.30     5.85     0  04:38        0.30
  WS02003059           JUNCTION     0.69     0.81     5.50     0  04:40        0.81
  WS02003067           JUNCTION     0.53     0.70     6.02     0  04:37        0.70
  WS02004401           JUNCTION     0.63     0.86     6.86     0  04:35        0.86
  WS02004402           JUNCTION     0.66     0.88     6.84     0  04:35        0.88
  WS02004403           JUNCTION     0.68     0.90     6.83     0  04:35        0.90
  WS02004404           JUNCTION     0.76     0.97     6.82     0  04:35        0.97
  WS02004406           JUNCTION     0.77     0.96     6.79     0  04:35        0.96
  WS02004409           JUNCTION     0.43     0.67     6.44     0  04:36        0.67
  WS02004410           JUNCTION     0.45     0.69     6.41     0  04:37        0.69
  WS02004411           JUNCTION     0.47     0.70     6.38     0  04:37        0.70
  WS02004412           JUNCTION     0.49     0.70     6.34     0  04:37        0.70
  WS02004413           JUNCTION     0.65     0.86     6.33     0  04:37        0.86
  WS02004405           JUNCTION     0.75     0.96     6.81     0  04:35        0.96
  WS02006109           JUNCTION     0.71     0.99     7.61     0  04:32        0.99
  WS02006110           JUNCTION     0.71     0.93     7.52     0  04:29        0.93
  WS02006111           JUNCTION     0.20     0.29     7.00     0  04:32        0.29
  WS02006112           JUNCTION     0.80     1.07     6.95     0  04:32        1.06
  WS02006113           JUNCTION     0.31     0.46     7.35     0  04:31        0.46
  WS02006115           JUNCTION     0.52     0.76     6.90     0  04:34        0.76
  WS02006116           JUNCTION     0.60     0.84     6.88     0  04:35        0.84
  WS02006230           JUNCTION     0.68     1.12     7.87     0  04:28        1.12
  WS02006231           JUNCTION     0.45     0.87     7.99     0  04:30        0.86
  WS02006232           JUNCTION     0.59     1.07     8.11     0  04:28        1.06
  WS02006234           JUNCTION     0.52     1.08     8.23     0  04:48        1.07
  WS02006235           JUNCTION     0.56     1.17     8.33     0  04:48        1.16
  WS02006238           JUNCTION     0.58     1.20     8.34     0  04:32        1.19
  WS02006240           JUNCTION     0.49     1.14     8.43     0  04:29        1.13
  WS02006242           JUNCTION     0.54     1.22     8.49     0  04:29        1.21
  WS02006243           JUNCTION     0.44     1.13     8.55     0  04:28        1.12
  WS02006245           JUNCTION     0.42     1.12     8.61     0  04:30        1.11
  WS02006247           JUNCTION     0.43     1.13     8.63     0  04:29        1.13
  WS02006248           JUNCTION     0.38     1.08     8.67     0  04:31        1.07
  WS02006249           JUNCTION     0.41     1.09     8.69     0  04:28        1.09
  WS02006239           JUNCTION     0.54     1.18     8.39     0  04:29        1.17
  WS02006251           JUNCTION     0.39     1.18     8.85     0  04:47        1.17
  WS02006252           JUNCTION     0.28     0.73     8.98     0  07:21        0.70
  WS02006253           JUNCTION     0.42     1.23     8.87     0  04:47        1.20
  WS02006256           JUNCTION     1.44     2.35     9.28     0  00:00        2.35
  WS02004138           JUNCTION     0.16     0.20     7.45     0  00:00        0.19
  WS02004139           JUNCTION     0.64     0.74     5.65     0  04:42        0.74
  WS02004407           JUNCTION     0.20     0.30     6.61     0  04:36        0.30
  WS02006228           JUNCTION     0.71     1.03     7.69     0  04:29        1.03
  WS02006229           JUNCTION     0.68     1.03     7.72     0  04:28        1.03
  WS02006280           JUNCTION     0.05     0.17     8.44     0  02:12        0.17
  WS02006284           JUNCTION     0.34     0.51     8.91     0  02:12        0.51
  WS02006287           JUNCTION     0.07     0.25     9.20     0  02:12        0.25
  WSF200               JUNCTION     0.19     0.31     5.54     0  04:38        0.31
  HS02004901           JUNCTION     0.10     0.26    10.08     0  02:10        0.26
  HS02004881           JUNCTION     0.01     0.03     9.06     0  02:11        0.03
  HS02004876           JUNCTION     0.03     0.11     9.14     0  02:08        0.11
  HS02004870           JUNCTION     0.01     0.05     9.34     0  02:12        0.05
  HS02004862           JUNCTION     0.01     0.06     9.44     0  02:13        0.06
  HS02004856           JUNCTION     0.07     0.11     9.54     0  02:12        0.11
  HS02004852           JUNCTION     0.01     0.03     9.55     0  02:13        0.03
  HS02004848           JUNCTION     0.01     0.03     9.64     0  02:12        0.03
  HS02004842           JUNCTION     0.33     0.37     9.64     0  02:11        0.37
  HS02004837           JUNCTION     0.03     0.06     9.64     0  02:11        0.06
  HS02004830           JUNCTION     0.04     0.07     9.54     0  02:12        0.07
  HS02004824           JUNCTION     0.02     0.05     9.45     0  02:14        0.05
  HS02004817           JUNCTION     0.42     0.55     9.40     0  02:12        0.55
  HS02004807           JUNCTION     0.11     0.23     9.40     0  02:12        0.23
  HS02004802           JUNCTION     0.14     0.26     9.39     0  02:12        0.26
  HS02004799           JUNCTION     0.09     0.30     9.51     0  02:10        0.30
  HS02004792           JUNCTION     0.02     0.12     9.64     0  02:10        0.12
  HS02004788           JUNCTION     0.02     0.09     9.99     0  02:11        0.09
  HS02004785           JUNCTION     0.03     0.15    10.06     0  02:10        0.15
  HS02004777           JUNCTION     0.13     0.28    10.08     0  02:10        0.28
  HS02004770           JUNCTION     0.10     0.25    10.08     0  02:10        0.25
  HS02004480           JUNCTION     0.06     0.23     9.47     0  02:11        0.23
  HS02004479           JUNCTION     0.09     0.27     9.47     0  02:11        0.27
  HS02004478           JUNCTION     0.05     0.15     9.38     0  02:12        0.15
  YS02001745           JUNCTION     0.65     0.86     8.38     0  03:58        0.86
  YS02001748           JUNCTION     1.04     1.30     8.38     0  03:58        1.30
  YS02001751           JUNCTION     1.21     1.50     8.38     0  03:56        1.50
  YS02001754           JUNCTION     1.46     1.77     8.38     0  03:58        1.77
  YS02001762           JUNCTION     1.65     1.99     8.39     0  04:52        1.97
  YS02001765           JUNCTION     1.60     1.95     8.40     0  04:52        1.92
  YS02001767           JUNCTION     1.57     1.91     8.40     0  04:52        1.88
  YS02001770           JUNCTION     1.56     1.90     8.39     0  04:52        1.88
  YS02001774           JUNCTION     1.63     1.96     8.39     0  04:52        1.95
  YS02001779           JUNCTION     1.39     1.68     8.37     0  03:43        1.68
  YS02001882           JUNCTION     0.29     0.56     7.27     0  02:39        0.56
  YS02001884           JUNCTION     0.38     0.66     7.27     0  02:40        0.65
  YS02001759           JUNCTION     1.68     2.02     8.39     0  03:55        2.01
  YS02001887           JUNCTION     0.46     0.73     7.27     0  02:39        0.73
  YS02001890           JUNCTION     0.49     0.76     7.27     0  02:40        0.76
  YS02001898           JUNCTION     0.26     0.52     7.25     0  02:38        0.52
  YS02001901           JUNCTION     0.38     0.64     7.25     0  02:40        0.64
  YS02001904           JUNCTION     0.36     0.62     7.25     0  02:39        0.62
  YS02001907           JUNCTION     0.69     0.96     7.25     0  02:39        0.96
  YS02001910           JUNCTION     0.48     0.75     7.25     0  02:40        0.74
  YS02001915           JUNCTION     0.28     0.53     7.25     0  02:40        0.53
  YS02001918           JUNCTION     0.09     0.18     7.25     0  02:40        0.18
  YS02001619           JUNCTION     1.17     1.47     8.40     0  03:45        1.46
  YS02001629           JUNCTION     1.52     1.84     8.39     0  03:46        1.83
  YS02001641           JUNCTION     1.62     1.93     8.37     0  03:44        1.92
  YS02001644           JUNCTION     1.62     1.92     8.35     0  03:42        1.92
  YS02001652           JUNCTION     1.47     1.81     8.41     0  04:27        1.78
  YS02001655           JUNCTION     1.24     1.56     8.41     0  03:48        1.54
  YS02001920           JUNCTION     0.19     0.26     7.27     0  02:41        0.26
  YS02001923           JUNCTION     0.07     0.10     7.36     0  03:01        0.10
  YS02001926           JUNCTION     0.15     0.20     7.65     0  03:01        0.20
  YS02001929           JUNCTION     0.07     0.10     7.80     0  03:01        0.10
  YS02001658           JUNCTION     0.98     1.28     8.42     0  03:48        1.25
  YS02001661           JUNCTION     0.75     1.02     8.43     0  03:47        1.00
  YS02001664           JUNCTION     0.32     0.51     8.43     0  03:48        0.48
  YS02001622           JUNCTION     1.19     1.49     8.40     0  03:45        1.48
  YS02001633           JUNCTION     1.61     1.94     8.39     0  03:44        1.92
  YS02001649           JUNCTION     1.66     2.00     8.39     0  03:48        1.99
  YS02001757           JUNCTION     1.78     2.13     8.39     0  04:00        2.11
  YS02001895           JUNCTION     0.26     0.52     7.26     0  02:41        0.51
  YS02001625           JUNCTION     1.47     1.78     8.38     0  03:40        1.78
  YS02163301           JUNCTION     1.55     1.88     8.39     0  03:44        1.86
  YS02163601           JUNCTION     1.66     1.99     8.38     0  03:45        1.97
  YS02164001           JUNCTION     1.60     1.92     8.37     0  03:43        1.91
  YS02001647           JUNCTION     1.46     1.77     8.38     0  04:27        1.75
  YSB1154              JUNCTION     0.23     0.42     9.48     0  02:11        0.42
  YSB6556              JUNCTION     0.13     0.31     9.48     0  02:11        0.31
  YSB1174              JUNCTION     0.18     0.37     9.48     0  02:11        0.37
  YSB1171              JUNCTION     0.38     0.57     9.48     0  02:11        0.57
  YS02006553           JUNCTION     0.69     0.96     7.25     0  02:37        0.96
  YS02006561           JUNCTION     0.14     0.28     6.94     0  02:37        0.28
  YS02006556           JUNCTION     0.66     0.93     7.24     0  02:36        0.93
  YS02006558           JUNCTION     0.71     0.98     7.24     0  02:36        0.98
  YS02001783           JUNCTION     0.25     0.71     6.85     0  02:26        0.68
  YS02001784           JUNCTION     0.29     0.77     6.83     0  02:26        0.77
  YS02001786           JUNCTION     0.25     0.75     6.78     0  02:26        0.75
  YS02001788           JUNCTION     0.19     0.76     6.74     0  02:26        0.75
  YS02001790           JUNCTION     0.26     1.96     7.60     0  04:15        1.04
  YS02001791           JUNCTION     0.21     1.66     7.13     0  02:23        1.17
  YS02001793           JUNCTION     0.27     1.98     6.82     0  04:08        1.78
  WSC                  OUTFALL      0.30     0.40     1.07     0  04:41        0.40
  JK-storage           STORAGE      1.87     5.80     6.60     0  02:25        5.80
  CC-storage           STORAGE      1.07     1.38     8.38     0  03:57        1.38
  XR-storage           STORAGE      2.50     5.86     3.86     0  06:06        5.86
  
  
  *******************
  Node Inflow Summary
  *******************
  
  -------------------------------------------------------------------------------------------------
                                  Maximum  Maximum                  Lateral       Total        Flow
                                  Lateral    Total  Time of Max      Inflow      Inflow     Balance
                                   Inflow   Inflow   Occurrence      Volume      Volume       Error
  Node                 Type           LPS      LPS  days hr:min    10^6 ltr    10^6 ltr     Percent
  -------------------------------------------------------------------------------------------------
  WS02001211           JUNCTION      7.35   389.64     0  05:10       0.207        8.78       0.468
  WS02001212           JUNCTION      0.00   391.98     0  05:10           0        8.74       0.262
  WS02001213           JUNCTION      0.00   394.24     0  05:10           0        8.73       0.356
  WS02003069           JUNCTION      0.32   945.26     0  04:39     0.00902        15.4       0.249
  WS02003072           JUNCTION      0.00   945.23     0  04:40           0        15.4       0.294
  WS02003073           JUNCTION      1.82   947.09     0  04:40      0.0514        15.4       0.343
  WS02003060           JUNCTION     16.53   944.86     0  04:38       0.466        15.5       0.235
  WS02003066           JUNCTION      0.00   545.46     0  04:38           0        6.38       0.084
  WS02003059           JUNCTION      0.00   397.92     0  05:09           0        8.72       0.476
  WS02003067           JUNCTION      0.00   545.37     0  04:37           0         6.4       0.166
  WS02004401           JUNCTION      0.00   548.05     0  04:34           0        6.66       0.372
  WS02004402           JUNCTION      0.00   548.04     0  04:35           0        6.64       0.345
  WS02004403           JUNCTION      0.00   547.79     0  04:35           0        6.62       0.310
  WS02004404           JUNCTION      0.16   547.85     0  04:35     0.00457         6.6       0.229
  WS02004406           JUNCTION      0.00   547.92     0  04:35           0        6.56       0.560
  WS02004409           JUNCTION      0.00   547.72     0  04:36           0        6.52       0.314
  WS02004410           JUNCTION      0.00   546.88     0  04:36           0         6.5       0.347
  WS02004411           JUNCTION      0.00   546.18     0  04:36           0        6.48       0.351
  WS02004412           JUNCTION      0.00   545.79     0  04:37           0        6.45       0.370
  WS02004413           JUNCTION      0.00   545.52     0  04:37           0        6.43       0.536
  WS02004405           JUNCTION      0.04   547.91     0  04:35     0.00107        6.59       0.340
  WS02006109           JUNCTION      1.23   550.61     0  04:29      0.0347        6.76       0.233
  WS02006110           JUNCTION      0.00   550.93     0  04:29           0        6.75       0.317
  WS02006111           JUNCTION      0.00   572.56     0  04:34           0        6.72       0.084
  WS02006112           JUNCTION     12.19   555.32     0  04:32       0.034        6.74       0.502
  WS02006113           JUNCTION      0.00   551.23     0  04:29           0        6.73       0.180
  WS02006115           JUNCTION      0.00   556.52     0  04:32           0        6.71       0.373
  WS02006116           JUNCTION      0.00   549.26     0  04:32           0        6.69       0.321
  WS02006230           JUNCTION     10.28   531.87     0  04:51        0.29        5.67       0.268
  WS02006231           JUNCTION      0.00   521.57     0  04:51           0        5.39       0.301
  WS02006232           JUNCTION      0.00   521.61     0  04:51           0        5.41       0.344
  WS02006234           JUNCTION      0.00   521.85     0  04:51           0        5.42       0.171
  WS02006235           JUNCTION      0.00   522.36     0  04:51           0        5.53       0.256
  WS02006238           JUNCTION      0.00   418.25     0  07:30           0        2.93       0.116
  WS02006240           JUNCTION      0.00   416.21     0  07:30           0        2.88       0.602
  WS02006242           JUNCTION      0.00   415.98     0  07:30           0        2.86       0.750
  WS02006243           JUNCTION      0.00   415.56     0  07:30           0        2.84       0.320
  WS02006245           JUNCTION      0.00   415.12     0  07:30           0        2.85       0.662
  WS02006247           JUNCTION      0.00   415.12     0  07:30           0        2.86       0.462
  WS02006248           JUNCTION      0.00   415.36     0  07:30           0        2.86       0.284
  WS02006249           JUNCTION      0.00   415.74     0  07:30           0        2.92       0.642
  WS02006239           JUNCTION      0.00   417.64     0  07:30           0         2.9       0.309
  WS02006251           JUNCTION      0.08   411.66     0  07:30     0.00217        2.99       0.573
  WS02006252           JUNCTION      0.00   400.00     0  07:20           0        2.76       0.023
  WS02006253           JUNCTION      1.76    78.51     0  07:19      0.0044       0.237       5.986
  WS02006256           JUNCTION      0.00   983.00     0  02:40           0        5.15      -0.009
  WS02004138           JUNCTION      0.00   380.00     0  00:00           0        8.61       0.073
  WS02004139           JUNCTION      0.32   395.85     0  00:00     0.00905        8.61       0.535
  WS02004407           JUNCTION      0.00   547.82     0  04:36           0        6.53       0.138
  WS02006228           JUNCTION      0.00   549.85     0  04:29           0        6.74       0.219
  WS02006229           JUNCTION      0.00   547.94     0  04:33           0        6.76       0.256
  WS02006280           JUNCTION      0.00   284.72     0  02:12           0        1.11       0.006
  WS02006284           JUNCTION      0.10   284.71     0  02:12      0.0027        1.11       0.107
  WS02006287           JUNCTION      0.00   284.59     0  02:12           0        1.11       0.064
  WSF200               JUNCTION      0.00   545.50     0  04:38           0        6.38       0.080
  HS02004901           JUNCTION     14.96    14.96     0  02:06      0.0409      0.0411       4.465
  HS02004881           JUNCTION      6.18    56.00     0  02:11      0.0179       0.189       0.049
  HS02004876           JUNCTION     10.23    50.03     0  02:12      0.0343       0.172       0.308
  HS02004870           JUNCTION     11.09    40.03     0  02:12      0.0338       0.138       0.077
  HS02004862           JUNCTION      9.38    29.61     0  02:12      0.0395       0.104       0.160
  HS02004856           JUNCTION      8.25    20.33     0  02:12      0.0255      0.0661       2.226
  HS02004852           JUNCTION      0.00    12.56     0  02:12           0      0.0407       0.125
  HS02004848           JUNCTION     19.14    19.14     0  02:13       0.081       0.081       0.053
  HS02004842           JUNCTION      0.00     7.14     0  02:22           0      0.0534      32.215
  HS02004837           JUNCTION     24.42    30.57     0  02:11       0.238       0.278       0.292
  HS02004830           JUNCTION      0.15    30.70     0  02:11     0.00423       0.269       0.461
  HS02004824           JUNCTION     21.66    52.19     0  02:14       0.106       0.373       0.144
  HS02004817           JUNCTION      0.60    52.78     0  02:14      0.0169        0.39       4.466
  HS02004807           JUNCTION     20.75    71.97     0  02:13      0.0622       0.435       0.980
  HS02004802           JUNCTION      0.00    72.39     0  02:14           0       0.431       0.950
  HS02004799           JUNCTION     16.15   181.06     0  02:10      0.0504       0.595       0.401
  HS02004792           JUNCTION     71.01   165.17     0  02:10       0.218       0.545       0.075
  HS02004788           JUNCTION     23.67    96.00     0  02:10       0.117       0.328       0.119
  HS02004785           JUNCTION      0.15    72.70     0  02:10     0.00423       0.213       0.225
  HS02004777           JUNCTION      0.03    73.01     0  02:09    0.000846       0.213       2.485
  HS02004770           JUNCTION     59.99    74.01     0  02:08       0.175       0.214       1.465
  HS02004480           JUNCTION      0.00   213.76     0  02:11           0       0.697       0.109
  HS02004479           JUNCTION      0.00    33.40     0  02:12           0       0.115       0.641
  HS02004478           JUNCTION      0.00   284.57     0  02:12           0        1.11       0.054
  YS02001745           JUNCTION    108.11   110.40     0  02:55        1.15        1.15       0.679
  YS02001748           JUNCTION      0.04   295.30     0  02:50     0.00127        1.15       1.864
  YS02001751           JUNCTION      0.01   328.03     0  02:50     0.00031        1.13       1.928
  YS02001754           JUNCTION      0.26   158.70     0  02:52     0.00733         1.1       2.248
  YS02001762           JUNCTION      0.00   178.16     0  02:57           0        1.22       1.782
  YS02001765           JUNCTION      0.00   171.74     0  02:57           0        1.22       2.013
  YS02001767           JUNCTION      0.54   171.42     0  02:52      0.0151        1.24       2.933
  YS02001770           JUNCTION    139.63   172.62     0  02:52        1.32        1.34       2.399
  YS02001774           JUNCTION      0.00    56.50     0  02:52           0       0.096      35.197
  YS02001779           JUNCTION      0.01    55.89     0  04:03    0.000141      0.0559      37.211
  YS02001882           JUNCTION      0.00     4.79     0  02:05           0     0.00715      33.745
  YS02001884           JUNCTION      0.00    13.65     0  02:05           0      0.0275      22.994
  YS02001759           JUNCTION    136.85   312.22     0  02:57        1.23        2.41       0.948
  YS02001887           JUNCTION    180.80   181.40     0  02:31        1.45        1.46       0.511
  YS02001890           JUNCTION      0.00   181.20     0  02:31           0        1.43       0.571
  YS02001898           JUNCTION      0.00   179.37     0  02:34           0        1.42       0.171
  YS02001901           JUNCTION      0.00   179.49     0  02:32           0        1.42       0.413
  YS02001904           JUNCTION      0.00   178.61     0  02:32           0        1.42       0.382
  YS02001907           JUNCTION      0.00   322.18     0  02:40           0        3.07       0.740
  YS02001910           JUNCTION      0.00   149.15     0  02:55           0        1.66       0.638
  YS02001915           JUNCTION     97.07   146.40     0  02:56       0.974        1.66       0.294
  YS02001918           JUNCTION      0.00    50.49     0  03:01           0       0.692       0.192
  YS02001619           JUNCTION     94.31    94.31     0  02:42       0.963       0.963       1.230
  YS02001629           JUNCTION      0.00   181.64     0  03:01           0       0.883       3.247
  YS02001641           JUNCTION      0.00   211.87     0  02:55           0        1.92       1.096
  YS02001644           JUNCTION    102.66   510.93     0  04:01         1.1        3.72       0.718
  YS02001652           JUNCTION      0.00   184.88     0  02:53           0        1.02       2.332
  YS02001655           JUNCTION      0.15   371.95     0  02:53     0.00434        1.05       2.032
  YS02001920           JUNCTION      2.87    49.33     0  03:01      0.0809       0.694       0.327
  YS02001923           JUNCTION      0.04    46.46     0  03:01     0.00106       0.614       0.058
  YS02001926           JUNCTION      0.05    46.45     0  03:01     0.00147       0.615       0.407
  YS02001929           JUNCTION     46.40    46.40     0  03:01       0.614       0.614       0.057
  YS02001658           JUNCTION      0.00   363.56     0  02:52           0        1.08       1.886
  YS02001661           JUNCTION      0.00   258.30     0  02:58           0         1.2       0.864
  YS02001664           JUNCTION    128.09   184.78     0  03:47        1.07        1.18       0.123
  YS02001622           JUNCTION      0.00   130.98     0  03:01           0       0.951       3.407
  YS02001633           JUNCTION    104.28   218.44     0  02:52        1.13        1.97       1.646
  YS02001649           JUNCTION      0.00   472.52     0  02:56           0        3.77       0.986
  YS02001757           JUNCTION      0.00   801.99     0  02:49           0         6.6       1.409
  YS02001895           JUNCTION      0.00   179.61     0  02:30           0        1.42       0.279
  YS02001625           JUNCTION      0.00   182.10     0  03:02           0        0.92       4.433
  YS02163301           JUNCTION      0.00   115.62     0  02:52           0       0.867       2.841
  YS02163601           JUNCTION      0.11   217.62     0  02:52      0.0031        1.93       1.578
  YS02164001           JUNCTION      0.00   215.86     0  02:52           0        1.91       1.047
  YS02001647           JUNCTION      0.00   329.77     0  04:02           0        2.95       0.957
  YSB1154              JUNCTION     18.19    18.19     0  02:09      0.0611      0.0622       2.375
  YSB6556              JUNCTION      0.00    18.13     0  02:11           0      0.0631       2.014
  YSB1174              JUNCTION     16.78    16.78     0  02:06      0.0444      0.0452       2.926
  YSB1171              JUNCTION      0.00    33.26     0  02:11           0       0.114       5.887
  YS02006553           JUNCTION      0.00   321.79     0  02:44           0        3.05       0.479
  YS02006561           JUNCTION      0.00   508.59     0  02:37           0        4.32       0.004
  YS02006556           JUNCTION      0.00   322.58     0  02:36           0        3.06       0.346
  YS02006558           JUNCTION    152.45   478.90     0  02:36        1.32        4.35       0.117
  YS02001783           JUNCTION      0.00   474.16     0  02:37           0        4.32       0.041
  YS02001784           JUNCTION      1.06   488.72     0  02:37      0.0299        4.35       0.062
  YS02001786           JUNCTION      0.06   506.24     0  02:37     0.00159        4.35       0.061
  YS02001788           JUNCTION      0.07   551.53     0  02:36       0.002        4.35       0.038
  YS02001790           JUNCTION      0.15   599.23     0  02:36     0.00437        4.35       0.023
  YS02001791           JUNCTION      0.00   638.25     0  02:36           0        4.35      -0.006
  YS02001793           JUNCTION      0.00   663.83     0  02:37           0        4.36      -0.052
  WSC                  OUTFALL       0.00   947.14     0  04:41           0        15.4       0.000
  JK-storage           STORAGE       0.00   733.41     0  02:40           0        4.52     -14.702
  CC-storage           STORAGE       0.00   804.60     0  02:49           0        5.92       0.968
  XR-storage           STORAGE     396.27   396.27     0  02:43        7.94        8.54      -0.792
  
  
  **********************
  Node Surcharge Summary
  **********************
  
  Surcharging occurs when water rises above the top of the highest conduit.
  ---------------------------------------------------------------------
                                               Max. Height   Min. Depth
                                   Hours       Above Crown    Below Rim
  Node                 Type      Surcharged         Meters       Meters
  ---------------------------------------------------------------------
  WS02006109           JUNCTION        2.00          0.174        1.646
  WS02006110           JUNCTION        0.40          0.023        1.827
  WS02006112           JUNCTION        0.60          0.065        1.615
  WS02006230           JUNCTION        0.24          0.040        1.530
  WS02006231           JUNCTION        0.59          0.159        1.371
  WS02006232           JUNCTION        1.64          0.369        1.111
  WS02006234           JUNCTION        1.19          0.357        0.883
  WS02006235           JUNCTION        1.55          0.458        0.832
  WS02006238           JUNCTION        1.58          0.476        0.954
  WS02006240           JUNCTION        1.25          0.427        0.963
  WS02006242           JUNCTION        1.36          0.489        0.331
  WS02006243           JUNCTION        1.14          0.418        0.352
  WS02006245           JUNCTION        1.06          0.411        0.439
  WS02006247           JUNCTION        1.06          0.422        0.338
  WS02006248           JUNCTION        0.94          0.360        0.020
  WS02006249           JUNCTION        0.97          0.390        0.000
  WS02006239           JUNCTION        1.40          0.437        0.853
  WS02006251           JUNCTION        0.33          0.151        1.029
  WS02006252           JUNCTION        1.52          0.335        0.765
  WS02006253           JUNCTION        0.35          0.187        2.293
  WS02006256           JUNCTION        6.45          2.050        0.000
  WS02006228           JUNCTION        1.96          0.204        1.996
  YS02001748           JUNCTION        4.07          0.223        0.967
  YS02001751           JUNCTION        4.73          0.502        0.698
  YS02001754           JUNCTION        5.14          0.723        0.427
  YS02001762           JUNCTION        5.51          0.988        0.162
  YS02001765           JUNCTION        5.48          0.945        0.155
  YS02001767           JUNCTION        5.46          0.913        0.117
  YS02001770           JUNCTION        5.44          0.868        0.052
  YS02001774           JUNCTION        5.50          0.963        0.087
  YS02001779           JUNCTION        5.01          0.680        0.000
  YS02001759           JUNCTION        5.53          1.022        0.188
  YS02001619           JUNCTION        4.69          0.472        0.138
  YS02001629           JUNCTION        4.70          0.464        0.006
  YS02001641           JUNCTION        5.49          0.932        0.168
  YS02001644           JUNCTION        5.50          0.920        0.000
  YS02001652           JUNCTION        5.28          0.782        0.348
  YS02001655           JUNCTION        4.81          0.556        0.644
  YS02001658           JUNCTION        4.14          0.278        1.022
  YS02001622           JUNCTION        4.73          0.492        0.128
  YS02001633           JUNCTION        5.48          0.920        0.140
  YS02001649           JUNCTION        5.51          0.996        0.054
  YS02001757           JUNCTION        5.59          1.126        0.084
  YS02001625           JUNCTION        5.38          0.780        0.000
  YS02163301           JUNCTION        5.45          0.878        0.152
  YS02163601           JUNCTION        5.52          0.987        0.093
  YS02164001           JUNCTION        5.48          0.916        0.184
  YS02001647           JUNCTION        5.33          0.771        0.129
  YS02001790           JUNCTION        0.26          1.157        0.000
  YS02001791           JUNCTION        0.47          0.856        1.064
  YS02001793           JUNCTION        0.70          0.984        1.616
  
  
  *********************
  Node Flooding Summary
  *********************
  
  Flooding refers to all water that overflows a node, whether it ponds or not.
  --------------------------------------------------------------------------
                                                             Total   Maximum
                                 Maximum   Time of Max       Flood    Ponded
                        Hours       Rate    Occurrence      Volume     Depth
  Node                 Flooded       LPS   days hr:min    10^6 ltr    Meters
  --------------------------------------------------------------------------
  WS02006249              0.30     78.97      0  04:30       0.045     0.000
  WS02006256              2.36    788.68      0  04:31       2.479     0.000
  YS02001779              0.55     55.87      0  04:03       0.029     0.000
  YS02001644              2.57    510.93      0  04:01       1.463     0.000
  YS02001625              0.03     11.20      0  03:43       0.000     0.000
  YS02001790              0.01    143.53      0  04:15       0.000     0.000
  JK-storage              0.12    255.76      0  02:27       0.067     0.000
  
  
  **********************
  Storage Volume Summary
  **********************
  
  --------------------------------------------------------------------------------------------------
                         Average     Avg  Evap Exfil       Maximum     Max    Time of Max    Maximum
                          Volume    Pcnt  Pcnt  Pcnt        Volume    Pcnt     Occurrence    Outflow
  Storage Unit           1000 m3    Full  Loss  Loss       1000 m3    Full    days hr:min        LPS
  --------------------------------------------------------------------------------------------------
  JK-storage               0.094      32     0     0         0.291     100       0  02:25     983.00
  CC-storage               2.982      19     0     0         3.850      25       0  03:57     400.00
  XR-storage               0.300      32     0     0         0.703      76       0  06:06     380.00
  
  
  ***********************
  Outfall Loading Summary
  ***********************
  
  ---------------------------------------------------------------------------------------------------------------------------------
                         Flow       Avg       Max       Total         Total         Total         Total         Total         Total
                         Freq      Flow      Flow      Volume           COD            SS            TN            TP         NH4-N
  Outfall Node           Pcnt       LPS       LPS    10^6 ltr            kg            kg            kg            kg            kg
  ---------------------------------------------------------------------------------------------------------------------------------
  WSC                   99.98    577.17    947.14      15.364      2036.557      3321.364       164.515        20.073       101.521
  ---------------------------------------------------------------------------------------------------------------------------------
  System                99.98    577.17    947.14      15.364      2036.557      3321.364       164.515        20.073       101.521
  
  
  ********************
  Link Flow Summary
  ********************
  
  -----------------------------------------------------------------------------
                                 Maximum  Time of Max   Maximum    Max/    Max/
                                  |Flow|   Occurrence   |Veloc|    Full    Full
  Link                 Type          LPS  days hr:min     m/sec    Flow   Depth
  -----------------------------------------------------------------------------
  WS02003066WSF200     CONDUIT    545.50     0  04:38      2.77    0.09    0.23
  WS02006287WS02006284 CONDUIT    284.61     0  02:12      1.81    0.13    0.25
  WS02006284WS02006280 CONDUIT    284.72     0  02:12      2.05    0.12    0.23
  WS02006280WS02006229 CONDUIT    284.73     0  02:12      3.30    0.06    0.17
  WS02006229WS02006228 CONDUIT    549.85     0  04:29      1.09    1.82    1.00
  WS02006256WS02006235 CONDUIT    288.92     0  00:00      4.23    3.06    1.00
  WS02006253WS02006251 CONDUIT     78.08     0  07:19      0.55    0.23    1.00
  WS02006252WS02006251 CONDUIT    402.02     0  07:21      3.20    1.48    1.00
  WS02006251WS02006249 CONDUIT    415.74     0  07:30      1.13    1.20    1.00
  WS02006249WS02006248 CONDUIT    415.36     0  07:30      1.19    2.28    1.00
  WS02006248WS02006247 CONDUIT    415.12     0  07:30      1.17    0.90    1.00
  WS02006247WS02006245 CONDUIT    415.12     0  07:30      1.14    3.29    1.00
  WS02006245WS02006243 CONDUIT    415.56     0  07:30      1.19    1.23    1.00
  WS02006243WS02006242 CONDUIT    415.98     0  07:30      1.08    0.89    1.00
  WS02006242WS02006240 CONDUIT    416.21     0  07:30      1.08    1.65    1.00
  WS02006240WS02006239 CONDUIT    417.64     0  07:30      1.09    1.31    1.00
  WS02006239WS02006238 CONDUIT    418.25     0  07:30      1.09    1.34    1.00
  WS02006238WS02006235 CONDUIT    419.91     0  07:30      1.45    0.94    1.00
  WS02006235WS02006234 CONDUIT    521.85     0  04:51      1.36    5.51    1.00
  WS02006234WS02006232 CONDUIT    521.61     0  04:51      1.39    1.06    1.00
  WS02006232WS02006231 CONDUIT    521.57     0  04:51      1.36    1.09    1.00
  WS02006231WS02006230 CONDUIT    521.59     0  04:51      1.40    7.91    1.00
  WS02006230WS02006229 CONDUIT    531.77     0  04:51      1.38   11.83    1.00
  WS02006228WS02006109 CONDUIT    549.38     0  04:29      1.09    2.40    1.00
  WS02006116WS02004401 CONDUIT    548.05     0  04:34      1.00    0.76    0.85
  WS02006115WS02006116 CONDUIT    549.26     0  04:32      1.02    0.70    0.77
  WS02006113WS02006111 CONDUIT    572.56     0  04:34      2.48    0.69    0.47
  WS02006112WS02006115 CONDUIT    556.52     0  04:32      0.76    0.33    0.88
  WS02006111WS02006112 CONDUIT    555.21     0  04:32      1.60    0.26    0.68
  WS02006110WS02006113 CONDUIT    551.23     0  04:29      1.30    0.50    0.79
  WS02006109WS02006110 CONDUIT    550.93     0  04:29      1.10    1.06    1.00
  WS02004411WS02004412 CONDUIT    545.79     0  04:37      0.93    0.78    0.70
  WS02004401WS02004402 CONDUIT    548.04     0  04:35      1.00    0.66    0.87
  WS02004413WS02003067 CONDUIT    545.37     0  04:37      1.12    0.23    0.59
  WS02004412WS02004413 CONDUIT    545.52     0  04:37      0.83    0.37    0.78
  WS02004410WS02004411 CONDUIT    546.18     0  04:36      0.94    0.75    0.69
  WS02004409WS02004410 CONDUIT    546.88     0  04:36      0.96    0.71    0.68
  WS02004407WS02004409 CONDUIT    547.72     0  04:36      1.47    0.19    0.49
  WS02004406WS02004407 CONDUIT    547.82     0  04:36      1.05    0.24    0.63
  WS02004405WS02004406 CONDUIT    547.92     0  04:35      1.10    1.08    0.96
  WS02004404WS02004405 CONDUIT    547.87     0  04:35      1.15    5.37    0.97
  WS02004403WS02004404 CONDUIT    547.69     0  04:35      0.98    0.40    0.93
  WS02004402WS02004403 CONDUIT    547.79     0  04:35      1.02    0.79    0.89
  WS02004139WS02001211 CONDUIT    382.30     0  05:10      0.90    0.48    0.60
  WS02004138WS02004139 CONDUIT    395.52     0  00:00      3.64    0.08    0.44
  WS02003067WS02003066 CONDUIT    545.46     0  04:38      1.22    0.17    0.42
  WS02001213WS02003059 CONDUIT    397.92     0  05:09      0.89    0.66    0.78
  WS02001212WS02001213 CONDUIT    394.24     0  05:10      1.32    0.61    0.47
  WS02001211WS02001212 CONDUIT    391.98     0  05:10      0.78    0.30    0.65
  WS02003072WS02003073 CONDUIT    945.27     0  04:40      1.73    2.04    0.49
  WS02003069WS02003072 CONDUIT    945.23     0  04:40      1.62    0.46    0.51
  WS02003060WS02003069 CONDUIT    944.94     0  04:39      1.87    0.37    0.46
  WS02003059WS02003060 CONDUIT    403.16     0  05:09      0.95    0.26    0.66
  HS02004901HS02004770 CONDUIT     14.25     0  02:08      0.06    0.05    0.36
  HS02004876HS02004881 CONDUIT     50.21     0  02:12      0.74    0.53    0.10
  HS02004870HS02004876 CONDUIT     40.00     0  02:12      0.51    0.03    0.11
  HS02004842HS02004848 CONDUIT      7.14     0  02:22      0.04    0.00    0.29
  HS02004837HS02004842 CONDUIT      7.43     0  02:22      0.42    0.00    0.30
  HS02004830HS02004837 CONDUIT     30.55     0  02:11      0.49    0.03    0.09
  HS02004824HS02004830 CONDUIT     30.69     0  02:12      0.53    0.04    0.08
  HS02004817HS02004824 CONDUIT     52.18     0  02:14      0.17    0.02    0.43
  HS02004770HS02004777 CONDUIT     72.98     0  02:09      0.28    0.13    0.37
  HS02004799HS02004480 CONDUIT    180.77     0  02:10      0.70    0.23    0.37
  HS02004792HS02004799 CONDUIT    165.08     0  02:10      0.80    0.10    0.30
  HS02004788HS02004792 CONDUIT     95.92     0  02:11      0.93    0.06    0.15
  HS02004785HS02004788 CONDUIT     72.60     0  02:10      0.60    0.55    0.17
  HS02004777HS02004785 CONDUIT     72.55     0  02:10      0.34    0.09    0.31
  HS02004480HS02004478 CONDUIT    213.74     0  02:11      1.10    0.90    0.28
  HS02004479HS02004480 CONDUIT     33.69     0  02:12      0.18    0.03    0.36
  HS02004862HS02004870 CONDUIT     29.57     0  02:13      0.54    0.03    0.08
  HS02004848HS02004852 CONDUIT     12.56     0  02:12      0.37    0.01    0.05
  HS02004856HS02004862 CONDUIT     20.28     0  02:12      0.40    0.02    0.07
  HS02004852HS02004856 CONDUIT     12.51     0  02:13      0.17    0.01    0.11
  HS02004802HS02004478 CONDUIT     72.96     0  02:15      0.36    0.06    0.30
  HS02004478WS02006287 CONDUIT    284.59     0  02:12      1.51    0.08    0.21
  HS02004817HS02004807 CONDUIT     53.53     0  02:16      0.14    0.03    0.56
  HS02004807HS02004802 CONDUIT     72.39     0  02:14      0.30    0.14    0.35
  YS02001759YS02001757 CONDUIT    316.07     0  02:57      0.40    0.22    1.00
  YS02001762YS02001759 CONDUIT    184.01     0  02:57      0.23    0.21    1.00
  YS02001765YS02001762 CONDUIT    178.16     0  02:57      0.25    0.17    1.00
  YS02001770YS02001767 CONDUIT    170.88     0  02:52      0.29    0.68    1.00
  YS02001774YS02001770 CONDUIT     56.50     0  02:52      0.14    0.04    1.00
  YS02001779YS02001774 CONDUIT     55.88     0  04:03      0.07    0.03    1.00
  YS02001649YS02001757 CONDUIT    473.43     0  02:56      0.60    0.29    1.00
  YS02001767YS02001765 CONDUIT    171.74     0  02:57      0.27    0.22    1.00
  YS02006561YS02001783 CONDUIT    474.16     0  02:37      1.97    0.25    0.61
  YS02001783YS02001784 CONDUIT    487.66     0  02:37      1.41    0.67    0.91
  YS02001784YS02001785 CONDUIT    506.18     0  02:37      1.55    1.18    0.95
  YS02001788YS02001790 CONDUIT    599.08     0  02:36      2.07    0.44    0.98
  YS02001790YS02001791 CONDUIT    638.25     0  02:36      2.46    0.69    1.00
  YS02001791YS02001793 CONDUIT    663.83     0  02:37      4.99    0.29    1.00
  YS02001910YS02001907 CONDUIT    149.78     0  02:56      0.49    0.08    0.85
  YS02001786YS02001788 CONDUIT    551.46     0  02:36      2.02    1.06    0.94
  YS02001915YS02001910 CONDUIT    149.15     0  02:55      0.46    0.07    0.64
  YS02001918YS02001915 CONDUIT     53.01     0  03:00      0.44    0.03    0.36
  YS02001923YS02001920 CONDUIT     46.46     0  03:01      0.52    0.02    0.18
  YS02001926YS02001923 CONDUIT     46.42     0  03:01      0.57    0.07    0.16
  YS02001929YS02001926 CONDUIT     46.40     0  03:01      0.62    0.02    0.15
  YS02001920YS02001918 CONDUIT     50.49     0  03:01      0.52    0.05    0.22
  YS02001629YS02163301 CONDUIT    115.62     0  02:52      0.15    0.14    1.00
  YS02001619YS02001622 CONDUIT    130.98     0  03:01      0.69    0.19    1.00
  YS02001622YS02001625 CONDUIT    182.10     0  03:02      0.29    0.10    1.00
  YS02001625YS02001629 CONDUIT    181.64     0  03:01      0.28    0.09    1.00
  YS02163301YS02001633 CONDUIT    114.57     0  02:52      0.15    0.11    1.00
  YS02163601YS02164001 CONDUIT    215.86     0  02:52      0.27    0.19    1.00
  YS02164001YS02001641 CONDUIT    211.87     0  02:55      0.27    0.29    1.00
  YS02001641YS02001644 CONDUIT    210.87     0  02:55      0.27    0.68    1.00
  YS02001647YS02001649 CONDUIT    329.77     0  04:02      0.42    0.17    1.00
  YS02006553YS02006556 CONDUIT    322.58     0  02:36      0.43    0.28    0.93
  YS02006556YS02006558 CONDUIT    326.81     0  02:36      0.42    0.26    0.95
  YSB6556YSB1171       CONDUIT     18.40     0  02:14      0.07    0.02    0.63
  YS02001907YS02006553 CONDUIT    321.79     0  02:44      0.36    0.38    1.00
  YS02006558YS02006561 CONDUIT    508.59     0  02:37      2.76    1.12    0.63
  YS02001633YS02163601 CONDUIT    217.51     0  02:52      0.28    0.23    1.00
  YS02001644YS02001647 CONDUIT    329.83     0  04:02      0.42    0.19    1.00
  YS02001745YS02001748 CONDUIT    209.03     0  02:52      1.54    0.08    0.93
  YS02001748YS02001751 CONDUIT    328.02     0  02:50      1.17    0.17    1.00
  YS02001751YS02001754 CONDUIT    158.44     0  02:52      0.90    0.08    1.00
  YS02001754YS02001757 CONDUIT    160.01     0  02:52      0.33    0.06    1.00
  YS02001882YS02001884 CONDUIT      4.79     0  02:05      0.07    0.01    0.58
  YS02001884YS02001887 CONDUIT     13.65     0  02:05      0.05    0.02    0.67
  YS02001890YS02001895 CONDUIT    179.61     0  02:30      0.34    0.08    0.64
  YS02001895YS02001898 CONDUIT    179.37     0  02:34      0.47    0.31    0.50
  YS02001898YS02001901 CONDUIT    179.49     0  02:32      0.39    0.12    0.58
  YS02001901YS02001904 CONDUIT    178.61     0  02:32      0.35    0.28    0.63
  YS02001904YS02001907 CONDUIT    179.59     0  02:36      0.27    0.06    0.79
  YS02001887YS02001890 CONDUIT    181.20     0  02:31      0.30    0.31    0.72
  YS02001652YS02001649 CONDUIT    180.17     0  02:56      0.39    0.09    1.00
  YS02001655YS02001652 CONDUIT    184.88     0  02:53      0.93    0.09    1.00
  YS02001658YS02001655 CONDUIT    371.79     0  02:53      1.35    0.16    1.00
  YS02001661YS02001658 CONDUIT    324.38     0  02:58      1.60    0.13    0.98
  YS02001664YS02001661 CONDUIT    248.95     0  03:47      1.34    0.08    0.70
  YSB1154YSB6556       CONDUIT     18.13     0  02:11      0.19    0.03    0.52
  YSB1174YSB1171       CONDUIT     15.91     0  02:07      0.06    0.02    0.63
  YSB1171HS02004479    CONDUIT     33.40     0  02:12      0.54    0.02    0.49
  HS02004881HS02006253 CONDUIT     55.99     0  02:11      1.91    0.01    0.50
  YS02001793JiankangQianchi CONDUIT    733.41     0  02:40     15.07    0.06    1.00
  YS02001757CaochengTiaoxuchi CONDUIT    804.60     0  02:49      1.56    0.35    1.00
  WSF200WS02003060     CONDUIT    545.67     0  04:38      2.02    0.12    0.34
  1                    CONDUIT    947.14     0  04:41      3.28    0.33    0.40
  CC-Pump-1            PUMP       200.00     0  04:10              1.00
  CC-Pump-2            PUMP       200.00     0  07:20              1.00
  JK-Pump-1            PUMP       300.00     0  00:00              1.00
  JK-Pump-2            PUMP       683.00     0  02:40              1.00
  XR-Pump-1            PUMP        95.00     0  00:00              1.00
  XR-Pump-2            PUMP        95.00     0  00:00              1.00
  XR-Pump-3            PUMP        95.00     0  00:00              1.00
  XR-Pump-4            PUMP        95.00     0  00:00              1.00
  
  
  ***************************
  Flow Classification Summary
  ***************************
  
  -------------------------------------------------------------------------------------
                      Adjusted    ---------- Fraction of Time in Flow Class ---------- 
                       /Actual         Up    Down  Sub   Sup   Up    Down  Norm  Inlet 
  Conduit               Length    Dry  Dry   Dry   Crit  Crit  Crit  Crit  Ltd   Ctrl  
  -------------------------------------------------------------------------------------
  WS02003066WSF200        1.00   0.01  0.03  0.00  0.00  0.96  0.00  0.00  0.78  0.00
  WS02006287WS02006284    1.00   0.04  0.02  0.00  0.76  0.17  0.00  0.00  0.77  0.00
  WS02006284WS02006280    1.00   0.05  0.00  0.00  0.00  0.00  0.00  0.95  0.00  0.00
  WS02006280WS02006229    1.00   0.05  0.00  0.00  0.00  0.00  0.00  0.95  0.00  0.00
  WS02006229WS02006228    1.00   0.00  0.00  0.00  0.99  0.00  0.00  0.01  0.00  0.00
  WS02006256WS02006235    1.00   0.00  0.00  0.00  1.00  0.00  0.00  0.00  0.00  0.00
  WS02006253WS02006251    1.00   0.02  0.02  0.00  0.95  0.00  0.01  0.00  0.00  0.00
  WS02006252WS02006251    1.00   0.27  0.00  0.00  0.03  0.00  0.69  0.00  0.00  0.00
  WS02006251WS02006249    1.00   0.00  0.00  0.00  1.00  0.00  0.00  0.00  0.47  0.00
  WS02006249WS02006248    1.00   0.00  0.01  0.00  0.82  0.00  0.17  0.00  0.00  0.00
  WS02006248WS02006247    1.00   0.01  0.00  0.00  0.99  0.00  0.00  0.00  0.28  0.00
  WS02006247WS02006245    1.00   0.01  0.00  0.00  0.97  0.00  0.00  0.03  0.00  0.00
  WS02006245WS02006243    1.00   0.00  0.00  0.00  0.89  0.00  0.00  0.10  0.01  0.00
  WS02006243WS02006242    1.00   0.00  0.00  0.00  1.00  0.00  0.00  0.00  0.39  0.00
  WS02006242WS02006240    1.00   0.00  0.00  0.00  0.98  0.00  0.02  0.00  0.00  0.00
  WS02006240WS02006239    1.00   0.00  0.00  0.00  0.88  0.00  0.00  0.11  0.02  0.00
  WS02006239WS02006238    1.00   0.00  0.00  0.00  1.00  0.00  0.00  0.00  0.18  0.00
  WS02006238WS02006235    1.00   0.00  0.00  0.00  1.00  0.00  0.00  0.00  0.00  0.00
  WS02006235WS02006234    1.00   0.00  0.00  0.00  0.92  0.00  0.08  0.00  0.00  0.00
  WS02006234WS02006232    1.00   0.00  0.00  0.00  1.00  0.00  0.00  0.00  0.14  0.00
  WS02006232WS02006231    1.00   0.00  0.00  0.00  1.00  0.00  0.00  0.00  0.00  0.00
  WS02006231WS02006230    1.00   0.00  0.00  0.00  0.52  0.00  0.48  0.00  0.00  0.00
  WS02006230WS02006229    1.00   0.00  0.00  0.00  0.99  0.00  0.00  0.01  0.00  0.00
  WS02006228WS02006109    1.00   0.00  0.00  0.00  1.00  0.00  0.00  0.00  0.01  0.00
  WS02006116WS02004401    1.00   0.01  0.00  0.00  0.99  0.00  0.00  0.00  0.00  0.00
  WS02006115WS02006116    1.00   0.01  0.00  0.00  0.99  0.00  0.00  0.00  0.00  0.00
  WS02006113WS02006111    1.00   0.01  0.00  0.00  0.00  0.99  0.00  0.00  0.23  0.00
  WS02006112WS02006115    1.00   0.01  0.00  0.00  0.99  0.00  0.00  0.00  0.00  0.00
  WS02006111WS02006112    1.00   0.01  0.00  0.00  0.99  0.00  0.00  0.00  0.98  0.00
  WS02006110WS02006113    1.00   0.00  0.00  0.00  0.99  0.00  0.00  0.00  0.00  0.00
  WS02006109WS02006110    1.00   0.00  0.00  0.00  0.99  0.00  0.00  0.00  0.00  0.00
  WS02004411WS02004412    1.00   0.02  0.00  0.00  0.98  0.00  0.00  0.00  0.00  0.00
  WS02004401WS02004402    1.00   0.01  0.00  0.00  0.99  0.00  0.00  0.00  0.00  0.00
  WS02004413WS02003067    1.00   0.02  0.01  0.00  0.00  0.00  0.97  0.00  0.00  0.00
  WS02004412WS02004413    1.00   0.02  0.00  0.00  0.98  0.00  0.00  0.00  0.01  0.00
  WS02004410WS02004411    1.00   0.02  0.00  0.00  0.98  0.00  0.00  0.00  0.00  0.00
  WS02004409WS02004410    1.00   0.02  0.00  0.00  0.98  0.00  0.00  0.00  0.02  0.00
  WS02004407WS02004409    1.00   0.02  0.00  0.00  0.98  0.00  0.00  0.00  0.95  0.00
  WS02004406WS02004407    1.00   0.00  0.02  0.00  0.98  0.00  0.00  0.00  0.00  0.00
  WS02004405WS02004406    1.00   0.00  0.00  0.00  1.00  0.00  0.00  0.00  0.00  0.00
  WS02004404WS02004405    1.00   0.00  0.00  0.00  1.00  0.00  0.00  0.00  0.00  0.00
  WS02004403WS02004404    1.00   0.00  0.01  0.00  0.99  0.00  0.00  0.00  0.00  0.00
  WS02004402WS02004403    1.00   0.01  0.00  0.00  0.99  0.00  0.00  0.00  0.00  0.00
  WS02004139WS02001211    1.00   0.00  0.00  0.00  1.00  0.00  0.00  0.00  0.00  0.00
  WS02004138WS02004139    1.00   0.00  0.00  0.00  1.00  0.00  0.00  0.00  1.00  0.00
  WS02003067WS02003066    1.00   0.03  0.00  0.00  0.96  0.00  0.00  0.00  0.00  0.00
  WS02001213WS02003059    1.00   0.00  0.00  0.00  1.00  0.00  0.00  0.00  0.00  0.00
  WS02001212WS02001213    1.00   0.00  0.00  0.00  0.79  0.00  0.20  0.00  0.00  0.00
  WS02001211WS02001212    1.00   0.00  0.00  0.00  1.00  0.00  0.00  0.00  0.00  0.00
  WS02003072WS02003073    1.00   0.00  0.00  0.00  0.00  0.00  0.00  1.00  0.00  0.00
  WS02003069WS02003072    1.00   0.00  0.00  0.00  1.00  0.00  0.00  0.00  0.20  0.00
  WS02003060WS02003069    1.00   0.00  0.00  0.00  0.96  0.04  0.00  0.00  0.16  0.00
  WS02003059WS02003060    1.00   0.00  0.00  0.00  1.00  0.00  0.00  0.00  0.01  0.00
  HS02004901HS02004770    1.00   0.05  0.00  0.00  0.95  0.00  0.00  0.00  0.01  0.00
  HS02004876HS02004881    1.00   0.01  0.00  0.00  0.99  0.00  0.00  0.00  0.00  0.00
  HS02004870HS02004876    1.00   0.00  0.00  0.00  0.99  0.00  0.00  0.00  0.95  0.00
  HS02004842HS02004848    1.00   0.00  0.05  0.00  0.95  0.00  0.00  0.00  0.65  0.00
  HS02004837HS02004842    1.00   0.00  0.00  0.00  1.00  0.00  0.00  0.00  0.11  0.00
  HS02004830HS02004837    1.00   0.00  0.00  0.00  1.00  0.00  0.00  0.00  0.99  0.00
  HS02004824HS02004830    1.00   0.00  0.00  0.00  1.00  0.00  0.00  0.00  0.00  0.00
  HS02004817HS02004824    1.00   0.00  0.00  0.00  1.00  0.00  0.00  0.00  1.00  0.00
  HS02004770HS02004777    1.00   0.00  0.05  0.00  0.95  0.00  0.00  0.00  0.05  0.00
  HS02004799HS02004480    1.00   0.00  0.02  0.00  0.94  0.00  0.05  0.00  0.00  0.00
  HS02004792HS02004799    1.00   0.00  0.00  0.00  0.99  0.01  0.00  0.00  0.98  0.00
  HS02004788HS02004792    1.00   0.00  0.00  0.00  1.00  0.00  0.00  0.00  0.98  0.00
  HS02004785HS02004788    1.00   0.00  0.00  0.00  1.00  0.00  0.00  0.00  0.00  0.00
  HS02004777HS02004785    1.00   0.00  0.00  0.00  1.00  0.00  0.00  0.00  0.17  0.00
  HS02004480HS02004478    1.00   0.05  0.00  0.00  0.79  0.00  0.00  0.16  0.00  0.00
  HS02004479HS02004480    1.00   0.02  0.00  0.00  0.98  0.00  0.00  0.00  0.14  0.00
  HS02004862HS02004870    1.00   0.00  0.00  0.00  1.00  0.00  0.00  0.00  0.05  0.00
  HS02004848HS02004852    1.00   0.05  0.00  0.00  0.95  0.00  0.00  0.00  0.72  0.00
  HS02004856HS02004862    1.00   0.00  0.08  0.00  0.92  0.00  0.00  0.00  0.78  0.00
  HS02004852HS02004856    1.00   0.05  0.01  0.00  0.95  0.00  0.00  0.00  0.84  0.00
  HS02004802HS02004478    1.00   0.05  0.01  0.00  0.95  0.00  0.00  0.00  0.02  0.00
  HS02004478WS02006287    1.00   0.06  0.00  0.00  0.87  0.07  0.00  0.00  0.75  0.00
  HS02004817HS02004807    1.00   0.00  0.05  0.00  0.95  0.00  0.00  0.00  0.00  0.00
  HS02004807HS02004802    1.00   0.05  0.00  0.00  0.95  0.00  0.00  0.00  0.01  0.00
  YS02001759YS02001757    1.00   0.00  0.00  0.00  1.00  0.00  0.00  0.00  0.18  0.00
  YS02001762YS02001759    1.00   0.00  0.00  0.00  1.00  0.00  0.00  0.00  0.04  0.00
  YS02001765YS02001762    1.00   0.00  0.00  0.00  1.00  0.00  0.00  0.00  0.19  0.00
  YS02001770YS02001767    1.00   0.00  0.00  0.00  1.00  0.00  0.00  0.00  0.00  0.00
  YS02001774YS02001770    1.00   0.00  0.05  0.00  0.94  0.00  0.00  0.00  0.05  0.00
  YS02001779YS02001774    1.00   0.00  0.00  0.00  1.00  0.00  0.00  0.00  0.24  0.00
  YS02001649YS02001757    1.00   0.00  0.00  0.00  1.00  0.00  0.00  0.00  0.18  0.00
  YS02001767YS02001765    1.00   0.00  0.00  0.00  1.00  0.00  0.00  0.00  0.01  0.00
  YS02006561YS02001783    1.00   0.08  0.00  0.00  0.02  0.90  0.00  0.00  0.65  0.00
  YS02001783YS02001784    1.00   0.00  0.08  0.00  0.92  0.00  0.00  0.00  0.01  0.00
  YS02001784YS02001785    1.00   0.00  0.00  0.00  1.00  0.00  0.00  0.00  0.23  0.00
  YS02001788YS02001790    1.00   0.00  0.00  0.00  0.19  0.81  0.00  0.00  0.69  0.00
  YS02001790YS02001791    1.00   0.00  0.00  0.00  0.11  0.89  0.00  0.00  0.57  0.00
  YS02001791YS02001793    1.00   0.00  0.00  0.00  0.19  0.81  0.00  0.00  0.05  0.00
  YS02001910YS02001907    1.00   0.00  0.00  0.00  0.99  0.00  0.00  0.01  0.13  0.00
  YS02001786YS02001788    1.00   0.00  0.00  0.00  0.17  0.83  0.00  0.00  0.00  0.00
  YS02001915YS02001910    1.00   0.00  0.00  0.00  0.99  0.01  0.00  0.00  0.21  0.00
  YS02001918YS02001915    1.00   0.00  0.00  0.00  0.99  0.01  0.00  0.00  0.70  0.00
  YS02001923YS02001920    1.00   0.00  0.00  0.00  1.00  0.00  0.00  0.00  1.00  0.00
  YS02001926YS02001923    1.00   0.00  0.03  0.00  0.00  0.00  0.97  0.00  0.00  0.00
  YS02001929YS02001926    1.00   0.00  0.05  0.00  0.95  0.00  0.00  0.00  0.87  0.00
  YS02001920YS02001918    1.00   0.00  0.00  0.00  1.00  0.00  0.00  0.00  0.00  0.00
  YS02001629YS02163301    1.00   0.07  0.01  0.00  0.93  0.00  0.00  0.00  0.00  0.00
  YS02001619YS02001622    1.00   0.05  0.00  0.00  0.95  0.00  0.00  0.00  0.00  0.00
  YS02001622YS02001625    1.00   0.05  0.00  0.00  0.95  0.00  0.00  0.00  0.10  0.00
  YS02001625YS02001629    1.00   0.05  0.04  0.00  0.90  0.00  0.02  0.00  0.00  0.00
  YS02163301YS02001633    1.00   0.00  0.07  0.00  0.93  0.00  0.00  0.00  0.00  0.00
  YS02163601YS02164001    1.00   0.00  0.03  0.00  0.97  0.00  0.00  0.00  0.00  0.00
  YS02164001YS02001641    1.00   0.00  0.03  0.00  0.97  0.00  0.00  0.00  0.07  0.00
  YS02001641YS02001644    1.00   0.00  0.00  0.00  1.00  0.00  0.00  0.00  0.00  0.00
  YS02001647YS02001649    1.00   0.00  0.08  0.00  0.92  0.00  0.00  0.00  0.01  0.00
  YS02006553YS02006556    1.00   0.01  0.00  0.00  0.99  0.00  0.00  0.00  0.03  0.00
  YS02006556YS02006558    1.00   0.00  0.00  0.00  1.00  0.00  0.00  0.00  0.00  0.00
  YSB6556YSB1171          1.00   0.02  0.03  0.00  0.96  0.00  0.00  0.00  0.00  0.00
  YS02001907YS02006553    1.00   0.00  0.01  0.00  0.99  0.00  0.00  0.00  0.00  0.00
  YS02006558YS02006561    1.00   0.08  0.00  0.00  0.00  0.92  0.00  0.00  0.67  0.00
  YS02001633YS02163601    1.00   0.00  0.00  0.00  1.00  0.00  0.00  0.00  0.18  0.00
  YS02001644YS02001647    1.00   0.00  0.08  0.00  0.92  0.00  0.00  0.00  0.00  0.00
  YS02001745YS02001748    1.00   0.00  0.00  0.00  0.88  0.00  0.00  0.12  0.06  0.00
  YS02001748YS02001751    1.00   0.00  0.00  0.00  0.96  0.04  0.00  0.00  0.17  0.00
  YS02001751YS02001754    1.00   0.00  0.00  0.00  0.91  0.00  0.00  0.09  0.02  0.00
  YS02001754YS02001757    1.00   0.00  0.00  0.00  1.00  0.00  0.00  0.00  0.24  0.00
  YS02001882YS02001884    1.00   0.06  0.00  0.00  0.93  0.00  0.00  0.00  0.00  0.00
  YS02001884YS02001887    1.00   0.03  0.02  0.00  0.96  0.00  0.00  0.00  0.00  0.00
  YS02001890YS02001895    1.00   0.00  0.07  0.00  0.93  0.00  0.00  0.00  0.00  0.00
  YS02001895YS02001898    1.00   0.07  0.00  0.00  0.91  0.00  0.01  0.00  0.00  0.00
  YS02001898YS02001901    1.00   0.07  0.00  0.00  0.93  0.00  0.00  0.00  0.02  0.00
  YS02001901YS02001904    1.00   0.07  0.00  0.00  0.93  0.00  0.00  0.00  0.00  0.00
  YS02001904YS02001907    1.00   0.00  0.07  0.00  0.93  0.00  0.00  0.00  0.00  0.00
  YS02001887YS02001890    1.00   0.00  0.00  0.00  0.98  0.00  0.01  0.00  0.00  0.00
  YS02001652YS02001649    1.00   0.00  0.00  0.00  1.00  0.00  0.00  0.00  0.22  0.00
  YS02001655YS02001652    1.00   0.00  0.00  0.00  0.91  0.00  0.00  0.09  0.02  0.00
  YS02001658YS02001655    1.00   0.00  0.06  0.00  0.90  0.04  0.00  0.00  0.08  0.00
  YS02001661YS02001658    1.00   0.06  0.00  0.00  0.88  0.06  0.00  0.00  0.06  0.00
  YS02001664YS02001661    1.00   0.05  0.00  0.00  0.89  0.07  0.00  0.00  0.29  0.00
  YSB1154YSB6556          1.00   0.04  0.00  0.00  0.96  0.00  0.00  0.00  0.02  0.00
  YSB1174YSB1171          1.00   0.02  0.01  0.00  0.96  0.00  0.00  0.00  0.00  0.00
  YSB1171HS02004479       1.00   0.02  0.00  0.00  0.98  0.00  0.00  0.00  0.12  0.00
  HS02004881HS02006253    1.00   0.02  0.00  0.00  0.60  0.00  0.00  0.37  0.33  0.00
  YS02001793JiankangQianchi    1.00   0.00  0.00  0.00  0.71  0.29  0.00  0.00  0.62  0.00
  YS02001757CaochengTiaoxuchi    1.00   0.00  0.10  0.00  0.90  0.00  0.00  0.00  0.00  0.00
  WSF200WS02003060        1.00   0.00  0.01  0.00  0.90  0.08  0.00  0.00  0.61  0.00
  1                       1.00   0.00  0.00  0.00  0.00  1.00  0.00  0.00  0.46  0.00
  
  
  *************************
  Conduit Surcharge Summary
  *************************
  
  ----------------------------------------------------------------------------
                                                           Hours        Hours 
                         --------- Hours Full --------   Above Full   Capacity
  Conduit                Both Ends  Upstream  Dnstream   Normal Flow   Limited
  ----------------------------------------------------------------------------
  WS02006229WS02006228        1.96      2.05      1.96      3.25         1.96
  WS02006256WS02006235        4.73      4.74      6.44      3.31         0.01
  WS02006253WS02006251        0.92      0.92      0.95      0.01         0.01
  WS02006252WS02006251        0.91      0.91      1.52      1.35         0.01
  WS02006251WS02006249        0.93      0.93      0.97      0.77         0.60
  WS02006249WS02006248        0.94      0.94      0.97      2.37         0.01
  WS02006248WS02006247        0.96      0.96      1.06      0.01         0.01
  WS02006247WS02006245        1.06      1.07      1.06      2.60         1.05
  WS02006245WS02006243        1.07      1.07      1.14      0.63         0.56
  WS02006243WS02006242        1.20      1.20      1.36      0.01         0.01
  WS02006242WS02006240        1.25      1.25      1.56      1.34         0.01
  WS02006240WS02006239        1.29      1.29      1.40      0.84         0.64
  WS02006239WS02006238        1.53      1.53      1.58      0.86         0.68
  WS02006238WS02006235        1.57      1.57      1.63      0.01         0.01
  WS02006235WS02006234        1.19      1.19      1.55      4.58         0.01
  WS02006234WS02006232        1.47      1.47      1.64      0.41         0.41
  WS02006232WS02006231        0.59      0.59      1.64      0.51         0.01
  WS02006231WS02006230        0.24      0.24      0.63      4.86         0.01
  WS02006230WS02006229        2.41      2.65      2.41      5.40         2.41
  WS02006228WS02006109        2.00      2.20      2.00      4.25         2.00
  WS02006112WS02006115        0.01      0.01      0.60      0.01         0.01
  WS02006111WS02006112        0.01      0.01      3.41      0.01         0.01
  WS02006110WS02006113        0.01      0.01      2.11      0.01         0.01
  WS02006109WS02006110        0.40      0.40      2.19      0.41         0.01
  WS02004405WS02004406        0.01      0.01      0.01      0.45         0.01
  WS02004404WS02004405        0.01      0.01      0.01      5.18         0.01
  WS02003072WS02003073        0.01      0.01      0.01      5.05         0.01
  YS02001759YS02001757        5.53      5.53      5.59      0.01         0.01
  YS02001762YS02001759        5.51      5.51      5.53      0.01         0.01
  YS02001765YS02001762        5.48      5.48      5.51      0.01         0.01
  YS02001770YS02001767        5.45      5.46      5.46      0.01         0.49
  YS02001774YS02001770        5.44      5.44      5.50      0.01         0.01
  YS02001779YS02001774        5.01      5.01      5.50      0.01         0.01
  YS02001649YS02001757        5.51      5.51      5.59      0.01         0.01
  YS02001767YS02001765        5.46      5.46      5.48      0.01         0.01
  YS02001784YS02001785        0.01      0.01      0.01      0.67         0.01
  YS02001788YS02001790        0.01      0.01      0.26      0.01         0.01
  YS02001790YS02001791        0.26      0.26      0.47      0.01         0.01
  YS02001791YS02001793        0.47      0.47      0.77      0.01         0.01
  YS02001786YS02001788        0.01      0.01      0.01      0.04         0.01
  YS02001629YS02163301        5.43      5.43      5.45      0.01         0.01
  YS02001619YS02001622        4.69      4.69      4.73      0.01         0.01
  YS02001622YS02001625        4.73      4.73      5.38      0.01         0.01
  YS02001625YS02001629        4.70      4.70      5.38      0.01         0.01
  YS02163301YS02001633        5.45      5.45      5.49      0.01         0.01
  YS02163601YS02164001        5.48      5.48      5.52      0.01         0.01
  YS02164001YS02001641        5.48      5.48      5.49      0.01         0.01
  YS02001641YS02001644        5.49      5.49      5.50      0.01         0.54
  YS02001647YS02001649        5.33      5.33      5.51      0.01         0.01
  YS02001907YS02006553        0.77      0.77      1.01      0.01         0.01
  YS02006558YS02006561        0.01      0.01      0.01      0.41         0.01
  YS02001633YS02163601        5.48      5.48      5.52      0.01         0.01
  YS02001644YS02001647        5.33      5.33      5.50      0.01         0.01
  YS02001745YS02001748        0.01      0.01      4.07      0.01         0.01
  YS02001748YS02001751        4.41      4.41      4.73      0.01         0.01
  YS02001751YS02001754        4.73      4.73      5.14      0.01         0.01
  YS02001754YS02001757        5.31      5.31      5.59      0.01         0.01
  YS02001652YS02001649        5.35      5.35      5.51      0.01         0.01
  YS02001655YS02001652        4.80      4.80      5.28      0.01         0.01
  YS02001658YS02001655        4.14      4.14      4.80      0.01         0.01
  YS02001661YS02001658        0.01      0.01      4.14      0.01         0.01
  YS02001664YS02001661        0.01      0.01      0.06      0.01         0.01
  HS02004881HS02006253        0.01      0.01      0.35      0.01         0.01
  YS02001793JiankangQianchi        0.70      0.70      3.24      0.01         0.01
  YS02001757CaochengTiaoxuchi        4.51      4.51      5.59      0.01         0.01
  
  
  ***************
  Pumping Summary
  ***************
  
  ---------------------------------------------------------------------------------------------------------
                                                  Min       Avg       Max     Total     Power    % Time Off
                        Percent   Number of      Flow      Flow      Flow    Volume     Usage    Pump Curve
  Pump                 Utilized   Start-Ups       LPS       LPS       LPS  10^6 ltr     Kw-hr    Low   High
  ---------------------------------------------------------------------------------------------------------
  CC-Pump-1               38.28           3      0.00    176.84    200.00     1.860      2.13    0.0    0.0
  CC-Pump-2               25.53           3      0.00    100.64    200.00     0.900      1.35    0.0    0.0
  JK-Pump-1               51.06           7      0.00    184.03    300.00     2.559     42.78    0.0    0.0
  JK-Pump-2               31.91           5      0.00    258.45    683.00     2.590     46.30    0.0   90.5
  XR-Pump-1               95.74           2      0.00     91.00     95.00     2.508     47.98    0.0    0.0
  XR-Pump-2               87.23           4      0.00     91.29     95.00     2.109     39.84    0.0    0.0
  XR-Pump-3               85.10           5      0.00     89.22     95.00     1.995     37.61    0.0    0.0
  XR-Pump-4               85.10           5      0.00     89.22     95.00     1.995     37.61    0.0    0.0
  
  
  ***************************
  Link Pollutant Load Summary
  ***************************
  
  ------------------------------------------------------------------------------------------
                                 COD            SS            TN            TP         NH4-N
  Link                            kg            kg            kg            kg            kg
  ------------------------------------------------------------------------------------------
  WS02003066WSF200           421.830       727.527        14.672         1.441         8.165
  WS02006287WS02006284       136.703       240.599         6.830         0.764         4.021
  WS02006284WS02006280       137.126       241.283         6.869         0.769         4.046
  WS02006280WS02006229       137.110       241.252         6.869         0.769         4.045
  WS02006229WS02006228       435.323       750.460        14.481         1.392         7.985
  WS02006256WS02006235       112.986       189.944         3.304         0.295         1.778
  WS02006253WS02006251        22.775        41.917         0.578         0.047         0.297
  WS02006252WS02006251       184.947       315.405         4.276         0.323         2.141
  WS02006251WS02006249       201.307       346.428         4.715         0.360         2.370
  WS02006249WS02006248       196.992       339.056         4.613         0.353         2.319
  WS02006248WS02006247       196.580       338.395         4.601         0.352         2.312
  WS02006247WS02006245       195.823       337.122         4.582         0.350         2.302
  WS02006245WS02006243       194.875       335.585         4.553         0.347         2.287
  WS02006243WS02006242       195.050       335.998         4.556         0.348         2.289
  WS02006242WS02006240       195.118       336.207         4.556         0.348         2.289
  WS02006240WS02006239       195.813       337.461         4.574         0.349         2.298
  WS02006239WS02006238       197.651       340.585         4.635         0.355         2.332
  WS02006238WS02006235       198.788       342.364         4.674         0.359         2.354
  WS02006235WS02006234       303.195       517.636         7.742         0.633         4.007
  WS02006234WS02006232       302.491       516.429         7.732         0.633         4.003
  WS02006232WS02006231       301.456       514.674         7.703         0.631         3.988
  WS02006231WS02006230       300.163       512.513         7.669         0.628         3.970
  WS02006230WS02006229       299.712       511.783         7.667         0.628         3.971
  WS02006228WS02006109       434.352       748.821        14.460         1.390         7.975
  WS02006116WS02004401       437.585       754.102        15.070         1.473         8.369
  WS02006115WS02006116       439.183       756.787        15.113         1.476         8.391
  WS02006113WS02006111       439.510       756.815        15.164         1.482         8.423
  WS02006112WS02006115       441.019       759.880        15.181         1.483         8.429
  WS02006111WS02006112       438.807       755.623        15.143         1.480         8.412
  WS02006110WS02006113       440.468       758.427        15.203         1.486         8.445
  WS02006109WS02006110       442.142       761.236        15.271         1.493         8.485
  WS02004411WS02004412       425.778       734.169        14.813         1.455         8.243
  WS02004401WS02004402       435.878       751.230        15.012         1.467         8.336
  WS02004413WS02003067       422.665       728.924        14.691         1.442         8.174
  WS02004412WS02004413       424.200       731.512        14.764         1.450         8.217
  WS02004410WS02004411       427.135       736.449        14.852         1.458         8.264
  WS02004409WS02004410       428.509       738.761        14.895         1.462         8.287
  WS02004407WS02004409       429.701       740.760        14.924         1.464         8.302
  WS02004406WS02004407       430.010       741.264        14.922         1.464         8.299
  WS02004405WS02004406       431.937       744.499        14.994         1.471         8.340
  WS02004404WS02004405       433.267       746.750        15.000         1.470         8.339
  WS02004403WS02004404       433.026       746.435        14.921         1.459         8.287
  WS02004402WS02004403       434.400       748.748        14.970         1.464         8.314
  WS02004139WS02001211      1463.772      2352.680       134.987        16.769        84.056
  WS02004138WS02004139      1460.907      2348.096       134.712        16.734        83.884
  WS02003067WS02003066       421.995       727.803        14.679         1.442         8.169
  WS02001213WS02003059      1511.584      2429.262       139.517        17.334        86.884
  WS02001212WS02001213      1515.075      2434.801       139.891        17.381        87.120
  WS02001211WS02001212      1514.790      2434.323       139.877        17.380        87.111
  WS02003072WS02003073      2032.441      3314.806       164.012        20.008       101.202
  WS02003069WS02003072      2037.129      3322.444       164.384        20.053       101.431
  WS02003060WS02003069      2039.454      3326.269       164.527        20.070       101.517
  WS02003059WS02003060      1511.521      2429.272       139.418        17.320        86.819
  HS02004901HS02004770         3.903         7.209         0.075         0.005         0.035
  HS02004876HS02004881        15.107        28.268         0.403         0.033         0.208
  HS02004870HS02004876        11.544        21.484         0.343         0.030         0.181
  HS02004842HS02004848         2.111         3.784         0.046         0.003         0.021
  HS02004837HS02004842         6.729        11.131         0.514         0.062         0.315
  HS02004830HS02004837        51.794        85.336         4.293         0.527         2.658
  HS02004824HS02004830        52.544        86.537         4.365         0.536         2.703
  HS02004817HS02004824        60.907       102.152         4.564         0.550         2.804
  HS02004770HS02004777        15.008        27.960         0.320         0.021         0.146
  HS02004799HS02004480        58.836       104.899         2.263         0.234         1.269
  HS02004792HS02004799        54.211        95.760         2.225         0.235         1.260
  HS02004788HS02004792        34.122        60.007         1.694         0.187         0.986
  HS02004785HS02004788        16.507        30.372         0.472         0.040         0.242
  HS02004777HS02004785        15.956        29.479         0.423         0.034         0.211
  HS02004480HS02004478        72.070       130.205         2.444         0.244         1.348
  HS02004479HS02004480        17.446        32.012         0.581         0.060         0.328
  HS02004862HS02004870         8.608        15.683         0.285         0.026         0.153
  HS02004848HS02004852         2.716         4.932         0.058         0.004         0.027
  HS02004856HS02004862         5.133         9.658         0.105         0.007         0.049
  HS02004852HS02004856         2.712         4.924         0.058         0.004         0.027
  HS02004802HS02004478        64.955       110.921         4.414         0.524         2.691
  HS02004478WS02006287       136.887       240.904         6.845         0.766         4.031
  HS02004817HS02004807        59.541        99.967         4.435         0.534         2.723
  HS02004807HS02004802        65.567       111.895         4.473         0.531         2.728
  YS02001759YS02001757       155.225       265.949         3.419         0.241         1.699
  YS02001762YS02001759        80.995       139.831         1.968         0.144         1.000
  YS02001765YS02001762        80.406       138.730         1.979         0.146         1.009
  YS02001770YS02001767        77.944       134.718         1.679         0.107         0.817
  YS02001774YS02001770         6.567        11.282         0.165         0.012         0.084
  YS02001779YS02001774         5.855         9.842         0.277         0.030         0.162
  YS02001649YS02001757       219.696       366.036         5.052         0.385         2.500
  YS02001767YS02001765        80.363       138.598         1.991         0.148         1.016
  YS02006561YS02001783       323.638       550.426         8.377         0.698         4.382
  YS02001783YS02001784       323.554       550.300         8.373         0.698         4.380
  YS02001784YS02001785       330.913       562.087         9.087         0.787         4.826
  YS02001788YS02001790       331.577       563.171         9.160         0.796         4.873
  YS02001790YS02001791       332.618       564.851         9.261         0.809         4.936
  YS02001791YS02001793       332.656       564.933         9.258         0.809         4.934
  YS02001910YS02001907       110.628       184.639         3.967         0.371         2.203
  YS02001786YS02001788       331.139       562.457         9.115         0.791         4.844
  YS02001915YS02001910       110.538       184.450         3.921         0.364         2.173
  YS02001918YS02001915        56.382        90.275         2.718         0.298         1.597
  YS02001923YS02001920        36.387        58.297         0.773         0.054         0.381
  YS02001926YS02001923        36.023        57.713         0.735         0.050         0.357
  YS02001929YS02001926        35.759        57.279         0.703         0.046         0.337
  YS02001920YS02001918        56.316        90.190         2.692         0.294         1.580
  YS02001629YS02163301        40.858        67.992         0.903         0.057         0.418
  YS02001619YS02001622        44.025        72.905         0.977         0.061         0.451
  YS02001622YS02001625        43.069        71.465         0.953         0.059         0.440
  YS02001625YS02001629        41.990        69.871         0.927         0.058         0.429
  YS02163301YS02001633        41.200        68.599         0.908         0.057         0.421
  YS02163601YS02164001       114.668       189.446         2.463         0.174         1.187
  YS02164001YS02001641       114.297       188.847         2.443         0.172         1.176
  YS02001641YS02001644       115.080       190.139         2.450         0.172         1.178
  YS02001647YS02001649       178.774       296.277         3.746         0.264         1.805
  YS02006553YS02006556       234.509       397.474         6.404         0.557         3.409
  YS02006556YS02006558       234.454       397.364         6.373         0.552         3.389
  YSB6556YSB1171               9.274        17.175         0.242         0.023         0.131
  YS02001907YS02006553       234.497       397.475         6.400         0.556         3.407
  YS02006558YS02006561       323.595       550.343         8.374         0.698         4.381
  YS02001633YS02163601       115.308       190.401         2.446         0.171         1.172
  YS02001644YS02001647       181.503       300.427         3.781         0.266         1.819
  YS02001745YS02001748        61.450       104.489         1.309         0.076         0.626
  YS02001748YS02001751        65.437       110.996         1.704         0.126         0.874
  YS02001751YS02001754        63.951       108.339         1.759         0.137         0.917
  YS02001754YS02001757        64.888       109.821         1.930         0.160         1.027
  YS02001882YS02001884         0.813         1.315         0.022         0.002         0.012
  YS02001884YS02001887         2.965         4.975         0.071         0.006         0.037
  YS02001890YS02001895       125.069       214.577         2.465         0.188         1.221
  YS02001895YS02001898       124.929       214.379         2.459         0.187         1.217
  YS02001898YS02001901       124.807       214.205         2.456         0.187         1.216
  YS02001901YS02001904       124.826       214.269         2.473         0.189         1.227
  YS02001904YS02001907       125.457       215.321         2.555         0.200         1.279
  YS02001887YS02001890       125.911       215.877         2.527         0.195         1.258
  YS02001652YS02001649        52.484        88.247         1.555         0.138         0.807
  YS02001655YS02001652        53.370        89.636         1.579         0.140         0.818
  YS02001658YS02001655        51.846        87.350         1.265         0.098         0.614
  YS02001661YS02001658        53.302        89.952         1.142         0.078         0.524
  YS02001664YS02001661        57.364        96.215         1.228         0.083         0.561
  YSB1154YSB6556               8.791        16.406         0.183         0.015         0.093
  YSB1174YSB1171               6.339        11.890         0.165         0.015         0.088
  YSB1171HS02004479           17.363        31.889         0.574         0.059         0.323
  HS02004881HS02006253        17.016        31.979         0.435         0.035         0.223
  YS02001793JiankangQianchi       334.356       567.701         9.327         0.816         4.974
  YS02001757CaochengTiaoxuchi       393.117       666.904         9.111         0.684         4.556
  WSF200WS02003060           421.562       727.096        14.672         1.441         8.165
  1                         2036.557      3321.364       164.515        20.073       101.521
  CC-Pump-1                  124.844       212.990         2.879         0.217         1.440
  CC-Pump-2                   59.989       102.238         1.387         0.105         0.694
  JK-Pump-1                  116.075       195.243         3.370         0.300         1.810
  JK-Pump-2                  135.081       233.171         3.421         0.285         1.786
  XR-Pump-1                  440.560       707.760        40.798         5.071        25.414
  XR-Pump-2                  351.376       564.834        32.360         4.019        20.147
  XR-Pump-3                  334.410       537.631        30.770         3.821        19.157
  XR-Pump-4                  334.410       537.631        30.770         3.821        19.157
  

  Analysis begun on:  Sun Jul 11 09:50:48 2021
  Analysis ended on:  Sun Jul 11 09:50:50 2021
  Total elapsed time: 00:00:02