
  EPA STORM WATER MANAGEMENT MODEL - VERSION 5.1 (Build 5.3.0.dev0)
  --------------------------------------------------------------

  WARNING 04: minimum elevation drop used for Conduit WS02004404WS02004405
  WARNING 03: negative offset ignored for Link YS02001904YS02001907
  
  *********************************************************
  NOTE: The summary statistics displayed in this report are
  based on results found at every computational time step,  
  not just on results from each reporting time step.
  *********************************************************
  
  ****************
  Analysis Options
  ****************
  Flow Units ............... LPS
  Process Models:
    Rainfall/Runoff ........ YES
    RDII ................... NO
    Snowmelt ............... NO
    Groundwater ............ NO
    Flow Routing ........... YES
    Ponding Allowed ........ NO
    Water Quality .......... YES
  Infiltration Method ...... HORTON
  Flow Routing Method ...... DYNWAVE
  Surcharge Method ......... EXTRAN
  Starting Date ............ 08/28/2015 08:00:00
  Ending Date .............. 08/28/2015 15:50:00
  Antecedent Dry Days ...... 8.0
  Report Time Step ......... 00:01:00
  Wet Time Step ............ 00:01:00
  Dry Time Step ............ 00:01:00
  Routing Time Step ........ 5.00 sec
  Variable Time Step ....... YES
  Maximum Trials ........... 8
  Number of Threads ........ 4
  Head Tolerance ........... 0.001500 m
  
  
  **************************        Volume         Depth
  Runoff Quantity Continuity     hectare-m            mm
  **************************     ---------       -------
  Total Precipitation ......         2.372         5.192
  Evaporation Loss .........         0.000         0.000
  Infiltration Loss ........         0.524         1.148
  Surface Runoff ...........         1.347         2.949
  Final Storage ............         0.501         1.096
  Continuity Error (%) .....        -0.022
  
  
  **************************           COD            SS            TN            TP         NH4-N
  Runoff Quality Continuity             kg            kg            kg            kg            kg
  **************************    ----------    ----------    ----------    ----------    ----------
  Initial Buildup ..........     41378.656     70582.865      1804.177       168.684      1032.807
  Surface Buildup ..........        14.108        17.594         2.944         0.272         1.743
  Wet Deposition ...........         0.000         0.000         0.000         0.000         0.000
  Sweeping Removal .........         0.000         0.000         0.000         0.000         0.000
  Infiltration Loss ........        23.108        40.046         0.463         0.031         0.217
  BMP Removal ..............         0.000         0.000         0.000         0.000         0.000
  Surface Runoff ...........       760.789      1281.195        15.550         1.002         7.321
  Remaining Buildup ........     40608.624     69278.813      1791.102       167.923      1027.010
  Continuity Error (%) .....         0.001         0.001         0.000         0.000         0.000
  
  
  **************************        Volume        Volume
  Flow Routing Continuity        hectare-m      10^6 ltr
  **************************     ---------     ---------
  Dry Weather Inflow .......         0.616         6.165
  Wet Weather Inflow .......         1.346        13.464
  Groundwater Inflow .......         0.000         0.000
  RDII Inflow ..............         0.000         0.000
  External Inflow ..........         0.102         1.024
  External Outflow .........         1.350        13.503
  Flooding Loss ............         0.369         3.690
  Evaporation Loss .........         0.000         0.000
  Exfiltration Loss ........         0.000         0.000
  Initial Stored Volume ....         0.076         0.761
  Final Stored Volume ......         0.548         5.481
  Continuity Error (%) .....        -5.887
  
  
  **************************           COD            SS            TN            TP         NH4-N
  Quality Routing Continuity            kg            kg            kg            kg            kg
  **************************    ----------    ----------    ----------    ----------    ----------
  Dry Weather Inflow .......      1541.201      2465.922       147.955        18.494        92.472
  Wet Weather Inflow .......       760.544      1280.820        15.544         1.002         7.319
  Groundwater Inflow .......         0.000         0.000         0.000         0.000         0.000
  RDII Inflow ..............         0.000         0.000         0.000         0.000         0.000
  External Inflow ..........       183.418       293.469        17.608         2.201        11.005
  External Outflow .........      1812.662      2935.758       155.699        19.165        96.513
  Flooding Loss ............       186.515       307.500         5.068         0.427         2.657
  Exfiltration Loss ........         0.000         0.000         0.000         0.000         0.000
  Mass Reacted .............         0.000         0.000         0.000         0.000         0.000
  Initial Stored Mass ......         0.000         0.000         0.000         0.000         0.000
  Final Stored Mass ........       300.901       495.290         8.779         0.761         4.650
  Continuity Error (%) .....         7.448         7.467         6.384         6.193         6.296
  
  
  *************************
  Highest Continuity Errors
  *************************
  Node YS02001774 (40.95%)
  Node HS02004842 (26.21%)
  Node JK-storage (-25.25%)
  Node YS02001884 (20.72%)
  Node YSB1171 (6.26%)
  
  
  ***************************
  Time-Step Critical Elements
  ***************************
  Link WS02006252WS02006251 (52.52%)
  Link WS02006280WS02006229 (13.61%)
  Link YS02001793JiankangQianchi (12.24%)
  Link WS02006238WS02006235 (8.71%)
  Link WS02003066WSF200 (3.09%)
  
  
  ********************************
  Highest Flow Instability Indexes
  ********************************
  Link WS02006113WS02006111 (61)
  Link YS02001779YS02001774 (16)
  Link YS02001619YS02001622 (14)
  Link YS02001774YS02001770 (14)
  Link YS02001759YS02001757 (12)
  
  
  *************************
  Routing Time Step Summary
  *************************
  Minimum Time Step           :     0.50 sec
  Average Time Step           :     1.82 sec
  Maximum Time Step           :     5.00 sec
  Percent in Steady State     :    -0.00
  Average Iterations per Step :     3.27
  Percent Not Converging      :    12.14
  
  
  ***************************
  Subcatchment Runoff Summary
  ***************************
  
  ------------------------------------------------------------------------------------------------------------------------------
                            Total      Total      Total      Total     Imperv       Perv      Total       Total     Peak  Runoff
                           Precip      Runon       Evap      Infil     Runoff     Runoff     Runoff      Runoff   Runoff   Coeff
  Subcatchment                 mm         mm         mm         mm         mm         mm         mm    10^6 ltr      LPS
  ------------------------------------------------------------------------------------------------------------------------------
  sub0                       5.19       0.00       0.00       0.36       4.78       0.00       4.78        0.00     1.48   0.921
  sub1                       5.19       0.00       0.00       0.57       4.53       0.00       4.53        0.03     8.53   0.873
  sub2                       5.19       0.00       0.00       1.92       3.19       0.00       3.19        0.03     7.64   0.615
  sub3                       5.19       0.00       0.00       1.92       3.16       0.00       3.16        0.07    15.89   0.608
  sub4                       5.19       0.00       0.00       0.57       4.40       0.00       4.40        0.09    17.93   0.847
  sub5                       5.19       0.00       0.00       0.36       4.74       0.00       4.74        0.05    15.18   0.913
  sub7                       5.19       0.00       0.00       0.47       4.66       0.00       4.66        0.02     5.17   0.898
  sub8                       5.19       0.00       0.00       0.47       4.66       0.00       4.66        0.03     9.26   0.897
  sub9                       5.19       0.00       0.00       0.47       4.65       0.00       4.65        0.02     6.89   0.896
  sub10                      5.19       0.00       0.00       0.42       4.69       0.00       4.69        0.05    15.07   0.904
  sub11                      5.19       0.00       0.00       0.42       4.71       0.00       4.71        0.05    17.35   0.907
  sub12                      5.19       0.00       0.00       0.67       4.47       0.00       4.47        0.04    14.06   0.861
  sub14                      5.19       0.00       0.00       0.47       4.65       0.00       4.65        0.04    13.49   0.896
  sub15                      5.19       0.00       0.00       1.56       3.58       0.00       3.58        0.06    18.38   0.689
  sub16                      5.19       0.00       0.00       1.71       3.44       0.00       3.44        0.04    12.53   0.662
  sub17                      5.19       0.00       0.00       1.66       3.49       0.00       3.49        0.03    10.21   0.672
  sub22                      5.19       0.00       0.00       2.23       2.92       0.00       2.92        0.18    59.19   0.562
  sub23                      5.19       0.00       0.00       1.92       3.23       0.00       3.23        0.15    50.18   0.622
  sub60                      5.19       0.00       0.00       0.62       3.24       0.00       3.24        0.98    89.56   0.623
  sub61                      5.19       0.00       0.00       0.88       3.43       0.00       3.43        1.06   113.28   0.661
  sub62                      5.19       0.00       0.00       0.42       3.69       0.00       3.69        1.13   115.50   0.711
  sub63                      5.19       0.00       0.00       1.51       3.05       0.00       3.05        0.92   106.06   0.587
  sub64                      5.19       0.00       0.00       0.78       3.09       0.00       3.09        0.94    85.02   0.596
  sub65                      5.19       0.00       0.00       0.67       3.14       0.00       3.14        0.96    86.23   0.604
  sub66                      5.19       0.00       0.00       1.51       2.69       0.00       2.69        0.83    78.12   0.519
  sub67                      5.19       0.00       0.00       0.42       4.03       0.00       4.03        1.24   149.33   0.776
  sub68                      5.19       0.00       0.00       0.73       3.65       0.00       3.65        1.12   125.50   0.702
  sub69                      5.19       0.00       0.00       0.78       3.91       0.00       3.91        0.91   125.52   0.753
  sub70                      5.19       3.99       0.00       3.12       4.88       0.00       4.88        1.12   101.47   0.531
  sub71                      5.19       0.00       0.00       0.42       3.54       0.00       3.54        0.84    80.38   0.682
  sub72                      5.19       0.00       0.00       0.36       2.54       0.00       2.54        0.52    38.30   0.489
  1                          5.19       4.75       0.00       1.32       5.02       0.74       5.76        1.35    97.03   0.580
  2                          5.19       0.00       0.00       2.91       1.18       0.24       1.42        0.57    76.81   0.273
  
  
  ****************************
  Subcatchment Washoff Summary
  ****************************
  
  ------------------------------------------------------------------------------------------
                                 COD            SS            TN            TP         NH4-N
  Subcatchment                    kg            kg            kg            kg            kg
  ------------------------------------------------------------------------------------------
  sub0                         0.744         1.376         0.012         0.001         0.006
  sub1                         3.009         5.620         0.057         0.004         0.027
  sub2                         1.716         3.082         0.039         0.002         0.017
  sub3                         4.128         7.304         0.091         0.006         0.041
  sub4                         6.556        12.124         0.136         0.008         0.065
  sub5                         6.914        12.755         0.121         0.009         0.058
  sub7                         1.607         3.068         0.030         0.002         0.015
  sub8                         2.428         4.724         0.050         0.003         0.024
  sub9                         2.051         3.936         0.040         0.002         0.019
  sub10                        5.759        10.773         0.105         0.007         0.051
  sub11                        5.748        10.918         0.108         0.007         0.052
  sub12                        4.810         8.996         0.086         0.006         0.041
  sub14                        4.344         8.258         0.083         0.005         0.040
  sub15                        5.059         9.153         0.100         0.007         0.046
  sub16                        3.230         5.858         0.063         0.005         0.029
  sub17                        2.951         5.301         0.055         0.004         0.026
  sub22                       14.894        26.378         0.291         0.021         0.134
  sub23                        9.231        16.984         0.207         0.013         0.094
  sub60                       48.900        81.647         1.052         0.060         0.502
  sub61                       62.239       103.708         1.217         0.078         0.583
  sub62                       65.728       111.531         1.369         0.081         0.654
  sub63                       46.826        77.122         1.022         0.068         0.465
  sub64                       57.803        92.843         1.117         0.078         0.528
  sub65                       59.271        95.619         1.155         0.078         0.548
  sub66                       35.156        57.158         0.796         0.049         0.366
  sub67                       98.938       166.904         1.808         0.127         0.869
  sub68                       70.255       118.579         1.422         0.090         0.674
  sub69                       66.301       113.908         1.294         0.086         0.613
  sub70                       99.624       170.693         2.117         0.139         0.975
  sub71                       43.522        74.411         0.972         0.052         0.463
  sub72                       27.896        43.916         0.555         0.036         0.266
  1                           51.128        88.293         1.127         0.075         0.511
  2                            7.950        12.855         0.264         0.016         0.110
  ------------------------------------------------------------------------------------------
  System                     926.714      1565.796        18.961         1.228         8.910
  
  
  ******************
  Node Depth Summary
  ******************
  
  ---------------------------------------------------------------------------------
                                 Average  Maximum  Maximum  Time of Max    Reported
                                   Depth    Depth      HGL   Occurrence   Max Depth
  Node                 Type       Meters   Meters   Meters  days hr:min      Meters
  ---------------------------------------------------------------------------------
  WS02001211           JUNCTION     0.70     0.79     5.62     0  07:04        0.79
  WS02001212           JUNCTION     0.41     0.49     5.56     0  07:03        0.49
  WS02001213           JUNCTION     0.64     0.74     5.50     0  07:02        0.74
  WS02003069           JUNCTION     0.41     0.55     5.14     0  07:01        0.55
  WS02003072           JUNCTION     0.48     0.61     4.98     0  07:02        0.61
  WS02003073           JUNCTION     0.28     0.37     4.44     0  07:03        0.37
  WS02003060           JUNCTION     0.37     0.49     5.42     0  07:01        0.49
  WS02003066           JUNCTION     0.19     0.28     5.83     0  06:59        0.28
  WS02003059           JUNCTION     0.69     0.79     5.48     0  07:02        0.79
  WS02003067           JUNCTION     0.49     0.67     5.99     0  06:59        0.67
  WS02004401           JUNCTION     0.56     0.80     6.80     0  06:56        0.80
  WS02004402           JUNCTION     0.59     0.83     6.79     0  06:56        0.83
  WS02004403           JUNCTION     0.62     0.85     6.78     0  06:55        0.85
  WS02004404           JUNCTION     0.69     0.92     6.77     0  06:55        0.92
  WS02004406           JUNCTION     0.71     0.92     6.75     0  06:56        0.92
  WS02004409           JUNCTION     0.36     0.61     6.38     0  06:58        0.61
  WS02004410           JUNCTION     0.39     0.63     6.35     0  06:59        0.63
  WS02004411           JUNCTION     0.41     0.64     6.32     0  06:59        0.64
  WS02004412           JUNCTION     0.43     0.65     6.29     0  06:59        0.65
  WS02004413           JUNCTION     0.60     0.82     6.29     0  06:59        0.81
  WS02004405           JUNCTION     0.69     0.92     6.77     0  06:55        0.92
  WS02006109           JUNCTION     0.62     0.93     7.55     0  06:52        0.93
  WS02006110           JUNCTION     0.63     0.89     7.48     0  06:52        0.89
  WS02006111           JUNCTION     0.17     0.28     6.98     0  06:53        0.27
  WS02006112           JUNCTION     0.71     0.98     6.87     0  06:55        0.98
  WS02006113           JUNCTION     0.25     0.44     7.33     0  06:53        0.43
  WS02006115           JUNCTION     0.44     0.70     6.83     0  06:55        0.69
  WS02006116           JUNCTION     0.53     0.78     6.82     0  06:56        0.78
  WS02006230           JUNCTION     0.54     1.02     7.77     0  06:52        1.01
  WS02006231           JUNCTION     0.34     0.76     7.88     0  06:52        0.73
  WS02006232           JUNCTION     0.46     0.94     7.98     0  06:51        0.91
  WS02006234           JUNCTION     0.37     0.96     8.12     0  06:51        0.91
  WS02006235           JUNCTION     0.40     1.05     8.22     0  06:51        0.98
  WS02006238           JUNCTION     0.42     1.09     8.23     0  06:51        1.01
  WS02006240           JUNCTION     0.32     1.04     8.34     0  06:51        0.96
  WS02006242           JUNCTION     0.37     1.12     8.39     0  06:51        1.04
  WS02006243           JUNCTION     0.25     1.02     8.44     0  06:51        0.95
  WS02006245           JUNCTION     0.24     0.99     8.48     0  06:51        0.94
  WS02006247           JUNCTION     0.25     1.01     8.51     0  06:51        0.96
  WS02006248           JUNCTION     0.20     0.95     8.53     0  06:51        0.91
  WS02006249           JUNCTION     0.23     0.95     8.55     0  06:51        0.92
  WS02006239           JUNCTION     0.37     1.08     8.28     0  06:51        0.99
  WS02006251           JUNCTION     0.21     0.92     8.59     0  06:51        0.91
  WS02006252           JUNCTION     0.17     0.59     8.83     0  06:49        0.59
  WS02006253           JUNCTION     0.25     0.95     8.59     0  06:51        0.94
  WS02006256           JUNCTION     1.17     2.35     9.28     0  00:00        2.35
  WS02004138           JUNCTION     0.16     0.20     7.45     0  00:00        0.19
  WS02004139           JUNCTION     0.64     0.73     5.64     0  07:04        0.73
  WS02004407           JUNCTION     0.17     0.28     6.59     0  06:56        0.28
  WS02006228           JUNCTION     0.60     0.96     7.61     0  06:52        0.96
  WS02006229           JUNCTION     0.57     0.95     7.65     0  06:52        0.95
  WS02006280           JUNCTION     0.05     0.15     8.42     0  02:13        0.15
  WS02006284           JUNCTION     0.34     0.49     8.89     0  02:13        0.49
  WS02006287           JUNCTION     0.07     0.23     9.18     0  02:13        0.23
  WSF200               JUNCTION     0.16     0.28     5.51     0  02:39        0.28
  HS02004901           JUNCTION     0.10     0.24    10.06     0  02:11        0.24
  HS02004881           JUNCTION     0.01     0.03     9.06     0  02:12        0.03
  HS02004876           JUNCTION     0.03     0.10     9.13     0  02:10        0.10
  HS02004870           JUNCTION     0.01     0.04     9.33     0  02:13        0.04
  HS02004862           JUNCTION     0.01     0.05     9.44     0  02:14        0.05
  HS02004856           JUNCTION     0.07     0.11     9.53     0  02:13        0.11
  HS02004852           JUNCTION     0.01     0.03     9.54     0  02:14        0.03
  HS02004848           JUNCTION     0.01     0.03     9.63     0  02:12        0.03
  HS02004842           JUNCTION     0.33     0.36     9.63     0  02:12        0.36
  HS02004837           JUNCTION     0.03     0.05     9.63     0  02:12        0.05
  HS02004830           JUNCTION     0.04     0.06     9.53     0  02:13        0.06
  HS02004824           JUNCTION     0.02     0.04     9.45     0  02:15        0.04
  HS02004817           JUNCTION     0.42     0.54     9.38     0  02:13        0.54
  HS02004807           JUNCTION     0.11     0.21     9.38     0  02:13        0.21
  HS02004802           JUNCTION     0.14     0.25     9.38     0  02:13        0.25
  HS02004799           JUNCTION     0.09     0.27     9.48     0  02:11        0.27
  HS02004792           JUNCTION     0.02     0.11     9.63     0  02:11        0.11
  HS02004788           JUNCTION     0.02     0.08     9.98     0  02:12        0.08
  HS02004785           JUNCTION     0.03     0.14    10.04     0  02:11        0.14
  HS02004777           JUNCTION     0.13     0.26    10.06     0  02:11        0.26
  HS02004770           JUNCTION     0.10     0.23    10.06     0  02:11        0.23
  HS02004480           JUNCTION     0.06     0.21     9.45     0  02:11        0.21
  HS02004479           JUNCTION     0.09     0.25     9.45     0  02:12        0.25
  HS02004478           JUNCTION     0.05     0.14     9.36     0  02:13        0.14
  YS02001745           JUNCTION     0.58     0.85     8.37     0  04:47        0.85
  YS02001748           JUNCTION     0.95     1.29     8.37     0  06:21        1.29
  YS02001751           JUNCTION     1.12     1.49     8.37     0  06:21        1.49
  YS02001754           JUNCTION     1.36     1.76     8.37     0  04:47        1.76
  YS02001762           JUNCTION     1.55     1.97     8.37     0  05:34        1.97
  YS02001765           JUNCTION     1.50     1.92     8.37     0  04:47        1.92
  YS02001767           JUNCTION     1.47     1.88     8.37     0  04:47        1.88
  YS02001770           JUNCTION     1.46     1.88     8.37     0  04:47        1.87
  YS02001774           JUNCTION     1.53     1.95     8.37     0  05:34        1.95
  YS02001779           JUNCTION     1.29     1.68     8.37     0  04:35        1.68
  YS02001882           JUNCTION     0.28     0.50     7.22     0  02:39        0.50
  YS02001884           JUNCTION     0.37     0.60     7.22     0  02:39        0.60
  YS02001759           JUNCTION     1.58     2.01     8.37     0  04:48        2.00
  YS02001887           JUNCTION     0.44     0.68     7.22     0  02:40        0.68
  YS02001890           JUNCTION     0.47     0.71     7.21     0  02:40        0.71
  YS02001898           JUNCTION     0.25     0.46     7.20     0  02:42        0.46
  YS02001901           JUNCTION     0.36     0.59     7.20     0  02:45        0.59
  YS02001904           JUNCTION     0.34     0.56     7.19     0  02:52        0.56
  YS02001907           JUNCTION     0.67     0.91     7.20     0  02:43        0.91
  YS02001910           JUNCTION     0.46     0.69     7.20     0  02:43        0.69
  YS02001915           JUNCTION     0.26     0.48     7.20     0  02:44        0.48
  YS02001918           JUNCTION     0.08     0.13     7.19     0  02:42        0.13
  YS02001619           JUNCTION     1.08     1.47     8.40     0  04:19        1.44
  YS02001629           JUNCTION     1.42     1.84     8.39     0  04:19        1.81
  YS02001641           JUNCTION     1.52     1.92     8.36     0  04:37        1.92
  YS02001644           JUNCTION     1.52     1.92     8.35     0  04:34        1.92
  YS02001652           JUNCTION     1.37     1.78     8.37     0  05:34        1.77
  YS02001655           JUNCTION     1.15     1.52     8.37     0  04:44        1.52
  YS02001920           JUNCTION     0.18     0.22     7.23     0  02:56        0.22
  YS02001923           JUNCTION     0.06     0.09     7.35     0  03:01        0.09
  YS02001926           JUNCTION     0.14     0.19     7.63     0  03:01        0.19
  YS02001929           JUNCTION     0.07     0.09     7.79     0  03:01        0.09
  YS02001658           JUNCTION     0.89     1.23     8.37     0  04:47        1.23
  YS02001661           JUNCTION     0.69     0.97     8.38     0  04:47        0.97
  YS02001664           JUNCTION     0.28     0.45     8.38     0  04:46        0.45
  YS02001622           JUNCTION     1.10     1.49     8.40     0  04:19        1.46
  YS02001633           JUNCTION     1.50     1.94     8.39     0  04:19        1.91
  YS02001649           JUNCTION     1.56     1.98     8.37     0  05:34        1.97
  YS02001757           JUNCTION     1.68     2.11     8.37     0  04:48        2.10
  YS02001895           JUNCTION     0.24     0.46     7.21     0  02:40        0.46
  YS02001625           JUNCTION     1.37     1.78     8.38     0  04:19        1.76
  YS02163301           JUNCTION     1.44     1.87     8.39     0  04:19        1.84
  YS02163601           JUNCTION     1.56     1.98     8.38     0  04:19        1.96
  YS02164001           JUNCTION     1.50     1.91     8.37     0  04:19        1.90
  YS02001647           JUNCTION     1.36     1.75     8.36     0  05:34        1.75
  YSB1154              JUNCTION     0.23     0.40     9.46     0  02:12        0.40
  YSB6556              JUNCTION     0.13     0.29     9.45     0  02:11        0.29
  YSB1174              JUNCTION     0.18     0.35     9.45     0  02:11        0.35
  YSB1171              JUNCTION     0.38     0.55     9.45     0  02:12        0.55
  YS02006553           JUNCTION     0.67     0.91     7.19     0  02:53        0.91
  YS02006561           JUNCTION     0.13     0.25     6.91     0  02:51        0.25
  YS02006556           JUNCTION     0.64     0.88     7.19     0  02:50        0.88
  YS02006558           JUNCTION     0.69     0.92     7.19     0  02:48        0.92
  YS02001783           JUNCTION     0.24     0.67     6.81     0  03:06        0.64
  YS02001784           JUNCTION     0.28     0.73     6.80     0  03:06        0.72
  YS02001786           JUNCTION     0.25     0.73     6.76     0  03:06        0.73
  YS02001788           JUNCTION     0.19     0.77     6.74     0  03:06        0.72
  YS02001790           JUNCTION     0.26     1.24     6.88     0  03:04        1.02
  YS02001791           JUNCTION     0.22     1.57     7.04     0  04:16        1.16
  YS02001793           JUNCTION     0.30     1.94     6.77     0  04:12        1.78
  WSC                  OUTFALL      0.28     0.37     1.04     0  07:03        0.37
  JK-storage           STORAGE      1.82     5.80     6.60     0  03:04        5.80
  CC-storage           STORAGE      0.98     1.37     8.37     0  04:45        1.37
  XR-storage           STORAGE      2.25     5.70     3.70     0  05:46        5.70
  
  
  *******************
  Node Inflow Summary
  *******************
  
  -------------------------------------------------------------------------------------------------
                                  Maximum  Maximum                  Lateral       Total        Flow
                                  Lateral    Total  Time of Max      Inflow      Inflow     Balance
                                   Inflow   Inflow   Occurrence      Volume      Volume       Error
  Node                 Type           LPS      LPS  days hr:min    10^6 ltr    10^6 ltr     Percent
  -------------------------------------------------------------------------------------------------
  WS02001211           JUNCTION      7.35   388.95     0  07:13       0.207         8.6       0.461
  WS02001212           JUNCTION      0.00   390.44     0  07:12           0        8.56       0.316
  WS02001213           JUNCTION      0.00   391.92     0  07:12           0        8.54       0.281
  WS02003069           JUNCTION      0.32   856.83     0  07:01     0.00902        13.6       0.203
  WS02003072           JUNCTION      0.00   856.78     0  07:02           0        13.5       0.258
  WS02003073           JUNCTION      1.82   858.68     0  07:02      0.0514        13.5       0.291
  WS02003060           JUNCTION     16.53   856.48     0  07:01       0.466        13.6       0.192
  WS02003066           JUNCTION      0.00   461.34     0  06:59           0        4.64       0.060
  WS02003059           JUNCTION      0.00   394.38     0  07:12           0        8.51       0.444
  WS02003067           JUNCTION      0.00   461.21     0  06:59           0        4.64       0.137
  WS02004401           JUNCTION      0.00   482.77     0  06:54           0        4.79       0.279
  WS02004402           JUNCTION      0.00   477.94     0  06:54           0        4.78       0.276
  WS02004403           JUNCTION      0.00   475.40     0  06:55           0        4.76       0.264
  WS02004404           JUNCTION      0.16   474.63     0  06:55     0.00457        4.76       0.212
  WS02004406           JUNCTION      0.00   474.25     0  06:56           0        4.73       0.526
  WS02004409           JUNCTION      0.00   473.66     0  06:56           0         4.7       0.162
  WS02004410           JUNCTION      0.00   468.92     0  06:57           0         4.7       0.208
  WS02004411           JUNCTION      0.00   465.14     0  06:58           0        4.69       0.233
  WS02004412           JUNCTION      0.00   463.03     0  06:58           0        4.68       0.275
  WS02004413           JUNCTION      0.00   461.80     0  06:58           0        4.66       0.444
  WS02004405           JUNCTION      0.04   474.38     0  06:55     0.00107        4.75       0.317
  WS02006109           JUNCTION      1.23   500.93     0  06:52      0.0347        4.82       0.169
  WS02006110           JUNCTION      0.00   501.10     0  06:52           0        4.81       0.193
  WS02006111           JUNCTION      0.00   516.96     0  06:53           0         4.8       0.027
  WS02006112           JUNCTION     10.21   503.91     0  06:53      0.0299        4.83       0.446
  WS02006113           JUNCTION      0.00   500.88     0  06:53           0         4.8       0.063
  WS02006115           JUNCTION      0.00   496.36     0  06:53           0        4.81       0.214
  WS02006116           JUNCTION      0.00   488.93     0  06:54           0         4.8       0.180
  WS02006230           JUNCTION     10.28   500.52     0  06:52        0.29        3.81       0.216
  WS02006231           JUNCTION      0.00   485.66     0  06:51           0        3.52      -0.038
  WS02006232           JUNCTION      0.00   485.62     0  06:51           0        3.53       0.199
  WS02006234           JUNCTION      0.00   484.65     0  06:51           0        3.52      -0.116
  WS02006235           JUNCTION      0.00   483.58     0  06:51           0        3.68       0.195
  WS02006238           JUNCTION      0.00   331.51     0  06:51           0         1.4      -0.104
  WS02006240           JUNCTION      0.00   331.62     0  06:51           0        1.26       0.104
  WS02006242           JUNCTION      0.00   331.84     0  06:51           0         1.2       0.176
  WS02006243           JUNCTION      0.00   332.03     0  06:51           0        1.15       0.187
  WS02006245           JUNCTION      0.00   332.21     0  06:51           0        1.14       0.628
  WS02006247           JUNCTION      0.00   332.75     0  06:51           0        1.14       0.095
  WS02006248           JUNCTION      0.00   333.55     0  06:51           0        1.13      -0.232
  WS02006249           JUNCTION      0.00   349.61     0  06:49           0        1.13       0.404
  WS02006239           JUNCTION      0.00   331.52     0  06:51           0        1.33      -0.293
  WS02006251           JUNCTION      0.08   399.86     0  06:50     0.00217        1.16      -0.065
  WS02006252           JUNCTION      0.00   399.61     0  06:50           0       0.963       0.023
  WS02006253           JUNCTION      1.48    85.17     0  06:50     0.00387       0.195       0.119
  WS02006256           JUNCTION      0.00   983.00     0  02:30           0        4.56      -0.013
  WS02004138           JUNCTION      0.00   380.00     0  00:00           0        8.44       0.068
  WS02004139           JUNCTION      0.32   395.85     0  00:00     0.00905        8.44       0.535
  WS02004407           JUNCTION      0.00   473.91     0  06:56           0        4.71       0.066
  WS02006228           JUNCTION      0.00   499.74     0  06:52           0        4.79       0.162
  WS02006229           JUNCTION      0.00   500.29     0  06:52           0        4.81       0.224
  WS02006280           JUNCTION      0.00   239.18     0  02:13           0           1       0.007
  WS02006284           JUNCTION      0.10   239.16     0  02:13      0.0027           1       0.116
  WS02006287           JUNCTION      0.00   239.03     0  02:13           0           1       0.071
  WSF200               JUNCTION      0.00   461.32     0  06:59           0        4.63       0.050
  HS02004901           JUNCTION     12.53    12.53     0  02:07       0.036      0.0362       5.109
  HS02004881           JUNCTION      5.17    46.30     0  02:12      0.0157       0.166       0.046
  HS02004876           JUNCTION      8.53    41.37     0  02:13      0.0301        0.15       0.351
  HS02004870           JUNCTION      9.26    33.03     0  02:13      0.0297        0.12       0.089
  HS02004862           JUNCTION      7.84    24.34     0  02:13      0.0354      0.0908       0.183
  HS02004856           JUNCTION      6.89    16.58     0  02:13      0.0224      0.0568       2.595
  HS02004852           JUNCTION      0.00    10.10     0  02:12           0      0.0345       0.146
  HS02004848           JUNCTION     15.89    15.89     0  02:15      0.0711      0.0711       0.062
  HS02004842           JUNCTION      0.00     6.26     0  02:23           0      0.0496      35.516
  HS02004837           JUNCTION     21.42    26.87     0  02:12       0.231       0.267       0.305
  HS02004830           JUNCTION      0.15    26.99     0  02:12     0.00423       0.258       0.480
  HS02004824           JUNCTION     17.98    44.82     0  02:15      0.0931        0.35       0.154
  HS02004817           JUNCTION      0.60    45.41     0  02:15      0.0169       0.366       4.770
  HS02004807           JUNCTION     17.35    61.42     0  02:14      0.0547       0.404       1.057
  HS02004802           JUNCTION      0.00    61.74     0  02:15           0         0.4       1.023
  HS02004799           JUNCTION     13.49   151.33     0  02:10      0.0443       0.529       0.449
  HS02004792           JUNCTION     59.47   138.06     0  02:10       0.192       0.485       0.086
  HS02004788           JUNCTION     20.05    80.31     0  02:11       0.109       0.294       0.133
  HS02004785           JUNCTION      0.15    60.61     0  02:10     0.00423       0.187       0.257
  HS02004777           JUNCTION      0.03    60.90     0  02:09    0.000846       0.187       2.841
  HS02004770           JUNCTION     50.18    61.83     0  02:08       0.154       0.188       1.673
  HS02004480           JUNCTION      0.00   178.55     0  02:11           0       0.618       0.118
  HS02004479           JUNCTION      0.00    27.84     0  02:13           0       0.102       0.721
  HS02004478           JUNCTION      0.00   239.01     0  02:13           0           1       0.059
  YS02001745           JUNCTION     89.56   151.39     0  03:20       0.981       0.994       1.178
  YS02001748           JUNCTION      0.04   205.34     0  03:20     0.00127       0.984       2.369
  YS02001751           JUNCTION      0.01   182.15     0  03:21     0.00031       0.948       2.480
  YS02001754           JUNCTION      0.26   127.53     0  03:17     0.00733       0.932       2.763
  YS02001762           JUNCTION      0.00   131.21     0  03:06           0        1.06       2.065
  YS02001765           JUNCTION      0.00   128.70     0  03:06           0        1.06       2.382
  YS02001767           JUNCTION      0.54   132.35     0  02:31      0.0151        1.08       3.448
  YS02001770           JUNCTION    115.65   128.71     0  02:36        1.14        1.15       2.893
  YS02001774           JUNCTION      0.00    38.83     0  02:25           0      0.0624      69.358
  YS02001779           JUNCTION      0.01    23.80     0  02:25    0.000141      0.0254     154.554
  YS02001882           JUNCTION      0.00     4.23     0  02:04           0     0.00614      39.424
  YS02001884           JUNCTION      0.00    11.84     0  02:04           0      0.0241      26.140
  YS02001759           JUNCTION    113.32   236.46     0  02:39        1.06        2.08       1.135
  YS02001887           JUNCTION    149.78   152.56     0  02:33        1.26        1.27       0.578
  YS02001890           JUNCTION      0.00   151.80     0  02:33           0        1.24       0.647
  YS02001898           JUNCTION      0.00   150.49     0  02:32           0        1.23       0.188
  YS02001901           JUNCTION      0.00   150.08     0  02:34           0        1.23       0.464
  YS02001904           JUNCTION      0.00   149.05     0  02:36           0        1.23       0.430
  YS02001907           JUNCTION      0.00   268.94     0  02:51           0        2.64       0.850
  YS02001910           JUNCTION      0.00   122.61     0  02:52           0        1.43       0.729
  YS02001915           JUNCTION     80.40   121.32     0  02:56       0.836        1.43       0.329
  YS02001918           JUNCTION      0.00    41.33     0  03:03           0       0.596       0.207
  YS02001619           JUNCTION     78.12    78.12     0  02:46       0.826       0.826       1.475
  YS02001629           JUNCTION      0.00   156.38     0  03:17           0       0.746       3.950
  YS02001641           JUNCTION      0.00   161.37     0  02:49           0        1.61       1.356
  YS02001644           JUNCTION     85.06   380.68     0  04:51       0.941        3.23       0.854
  YS02001652           JUNCTION      0.00   117.93     0  03:13           0       0.855       2.860
  YS02001655           JUNCTION      0.15   172.85     0  03:12     0.00434       0.879       2.833
  YS02001920           JUNCTION      2.87    41.21     0  03:01      0.0809       0.598       0.361
  YS02001923           JUNCTION      0.04    38.35     0  03:01     0.00106       0.517       0.064
  YS02001926           JUNCTION      0.05    38.35     0  03:01     0.00147       0.518       0.449
  YS02001929           JUNCTION     38.30    38.30     0  03:01       0.517       0.517       0.062
  YS02001658           JUNCTION      0.00   205.45     0  03:17           0       0.906       2.458
  YS02001661           JUNCTION      0.00   292.69     0  04:17           0           1       2.072
  YS02001664           JUNCTION    106.06   258.56     0  04:18       0.923       0.999       0.595
  YS02001622           JUNCTION      0.00   106.87     0  03:17           0       0.815       4.044
  YS02001633           JUNCTION     86.43   166.24     0  02:46       0.969        1.67       1.967
  YS02001649           JUNCTION      0.00   348.48     0  02:47           0         3.3       1.158
  YS02001757           JUNCTION      0.00   654.95     0  02:47           0        5.67       1.654
  YS02001895           JUNCTION      0.00   150.38     0  02:32           0        1.23       0.310
  YS02001625           JUNCTION      0.00   156.32     0  03:17           0       0.785       5.271
  YS02163301           JUNCTION      0.00    80.40     0  02:42           0       0.726       3.466
  YS02163601           JUNCTION      0.11   165.28     0  02:46      0.0031        1.63       1.898
  YS02164001           JUNCTION      0.00   164.15     0  02:46           0        1.61       1.296
  YS02001647           JUNCTION      0.00   265.00     0  04:51           0        2.62       1.120
  YSB1154              JUNCTION     15.18    15.18     0  02:10      0.0537      0.0549       2.704
  YSB6556              JUNCTION      0.00    15.08     0  02:12           0      0.0558       2.282
  YSB1174              JUNCTION     14.06    14.06     0  02:06      0.0391      0.0398       3.336
  YSB1171              JUNCTION      0.00    27.76     0  02:12           0       0.101       6.675
  YS02006553           JUNCTION      0.00   268.93     0  02:47           0        2.63       0.551
  YS02006561           JUNCTION      0.00   410.33     0  02:48           0        3.73       0.025
  YS02006556           JUNCTION      0.00   268.91     0  02:47           0        2.63       0.399
  YS02006558           JUNCTION    126.38   392.70     0  02:47        1.15        3.75       0.116
  YS02001783           JUNCTION      0.00   392.63     0  02:47           0        3.73       0.042
  YS02001784           JUNCTION      1.06   412.75     0  03:06      0.0299        3.75       0.068
  YS02001786           JUNCTION      0.06   412.48     0  03:07     0.00159        3.75       0.067
  YS02001788           JUNCTION      0.07   428.33     0  03:07       0.002        3.75       0.038
  YS02001790           JUNCTION      0.15   490.84     0  03:16     0.00437        3.76       0.021
  YS02001791           JUNCTION      0.00   545.35     0  03:17           0        3.76       0.013
  YS02001793           JUNCTION      0.00   585.18     0  03:17           0        3.76       0.011
  WSC                  OUTFALL       0.00   858.79     0  07:03           0        13.5       0.000
  JK-storage           STORAGE       0.00   601.60     0  03:00           0        3.91     -20.162
  CC-storage           STORAGE       0.00   654.80     0  02:46           0           5       1.323
  XR-storage           STORAGE     361.41   361.41     0  02:47        7.56        8.16      -3.287
  
  
  **********************
  Node Surcharge Summary
  **********************
  
  Surcharging occurs when water rises above the top of the highest conduit.
  ---------------------------------------------------------------------
                                               Max. Height   Min. Depth
                                   Hours       Above Crown    Below Rim
  Node                 Type      Surcharged         Meters       Meters
  ---------------------------------------------------------------------
  WS02006109           JUNCTION        0.60          0.110        1.710
  WS02006231           JUNCTION        0.04          0.046        1.484
  WS02006232           JUNCTION        0.26          0.241        1.239
  WS02006234           JUNCTION        0.16          0.239        1.001
  WS02006235           JUNCTION        0.21          0.342        0.948
  WS02006238           JUNCTION        0.23          0.366        1.064
  WS02006240           JUNCTION        0.15          0.333        1.057
  WS02006242           JUNCTION        0.17          0.389        0.431
  WS02006243           JUNCTION        0.11          0.307        0.463
  WS02006245           JUNCTION        0.10          0.284        0.566
  WS02006247           JUNCTION        0.10          0.295        0.465
  WS02006248           JUNCTION        0.08          0.227        0.153
  WS02006249           JUNCTION        0.08          0.253        0.137
  WS02006239           JUNCTION        0.17          0.336        0.954
  WS02006252           JUNCTION        0.19          0.189        0.911
  WS02006256           JUNCTION        6.42          2.050        0.000
  WS02006228           JUNCTION        0.59          0.129        2.071
  YS02001748           JUNCTION        3.85          0.210        0.980
  YS02001751           JUNCTION        4.41          0.489        0.711
  YS02001754           JUNCTION        4.83          0.712        0.438
  YS02001762           JUNCTION        5.40          0.972        0.178
  YS02001765           JUNCTION        5.35          0.922        0.178
  YS02001767           JUNCTION        5.30          0.884        0.146
  YS02001770           JUNCTION        5.25          0.848        0.072
  YS02001774           JUNCTION        5.38          0.950        0.100
  YS02001779           JUNCTION        4.73          0.680        0.000
  YS02001759           JUNCTION        5.43          1.008        0.202
  YS02001619           JUNCTION        4.34          0.470        0.140
  YS02001629           JUNCTION        4.34          0.460        0.010
  YS02001641           JUNCTION        5.37          0.925        0.175
  YS02001644           JUNCTION        5.37          0.920        0.000
  YS02001652           JUNCTION        4.91          0.745        0.385
  YS02001655           JUNCTION        4.47          0.523        0.677
  YS02001658           JUNCTION        3.84          0.233        1.067
  YS02001622           JUNCTION        4.38          0.492        0.128
  YS02001633           JUNCTION        5.34          0.916        0.144
  YS02001649           JUNCTION        5.41          0.980        0.070
  YS02001757           JUNCTION        5.52          1.110        0.100
  YS02001625           JUNCTION        5.03          0.780        0.000
  YS02163301           JUNCTION        5.28          0.874        0.156
  YS02163601           JUNCTION        5.40          0.981        0.099
  YS02164001           JUNCTION        5.35          0.911        0.189
  YS02001647           JUNCTION        4.97          0.754        0.146
  YS02001790           JUNCTION        0.66          0.439        0.718
  YS02001791           JUNCTION        0.85          0.773        1.147
  YS02001793           JUNCTION        1.18          0.938        1.662
  
  
  *********************
  Node Flooding Summary
  *********************
  
  Flooding refers to all water that overflows a node, whether it ponds or not.
  --------------------------------------------------------------------------
                                                             Total   Maximum
                                 Maximum   Time of Max       Flood    Ponded
                        Hours       Rate    Occurrence      Volume     Depth
  Node                 Flooded       LPS   days hr:min    10^6 ltr    Meters
  --------------------------------------------------------------------------
  WS02006256              2.06    744.82      0  06:43       2.152     0.000
  YS02001779              0.14      7.07      0  04:48       0.001     0.000
  YS02001644              2.07    380.30      0  04:51       1.267     0.000
  YS02001625              0.01     12.62      0  04:19       0.000     0.000
  JK-storage              0.40    420.11      0  03:07       0.270     0.000
  
  
  **********************
  Storage Volume Summary
  **********************
  
  --------------------------------------------------------------------------------------------------
                         Average     Avg  Evap Exfil       Maximum     Max    Time of Max    Maximum
                          Volume    Pcnt  Pcnt  Pcnt        Volume    Pcnt     Occurrence    Outflow
  Storage Unit           1000 m3    Full  Loss  Loss       1000 m3    Full    days hr:min        LPS
  --------------------------------------------------------------------------------------------------
  JK-storage               0.092      31     0     0         0.291     100       0  03:04     983.00
  CC-storage               2.734      17     0     0         3.829      24       0  04:45     399.61
  XR-storage               0.271      29     0     0         0.684      74       0  05:46     380.00
  
  
  ***********************
  Outfall Loading Summary
  ***********************
  
  ---------------------------------------------------------------------------------------------------------------------------------
                         Flow       Avg       Max       Total         Total         Total         Total         Total         Total
                         Freq      Flow      Flow      Volume           COD            SS            TN            TP         NH4-N
  Outfall Node           Pcnt       LPS       LPS    10^6 ltr            kg            kg            kg            kg            kg
  ---------------------------------------------------------------------------------------------------------------------------------
  WSC                   99.97    518.85    858.79      13.503      1812.763      2935.920       155.708        19.167        96.518
  ---------------------------------------------------------------------------------------------------------------------------------
  System                99.97    518.85    858.79      13.503      1812.763      2935.920       155.708        19.167        96.518
  
  
  ********************
  Link Flow Summary
  ********************
  
  -----------------------------------------------------------------------------
                                 Maximum  Time of Max   Maximum    Max/    Max/
                                  |Flow|   Occurrence   |Veloc|    Full    Full
  Link                 Type          LPS  days hr:min     m/sec    Flow   Depth
  -----------------------------------------------------------------------------
  WS02003066WSF200     CONDUIT    461.32     0  06:59      2.71    0.08    0.21
  WS02006287WS02006284 CONDUIT    239.07     0  02:13      1.71    0.11    0.23
  WS02006284WS02006280 CONDUIT    239.18     0  02:13      1.95    0.10    0.21
  WS02006280WS02006229 CONDUIT    239.18     0  02:13      3.13    0.05    0.15
  WS02006229WS02006228 CONDUIT    499.74     0  06:52      1.02    1.66    1.00
  WS02006256WS02006235 CONDUIT    288.92     0  00:00      4.23    3.06    1.00
  WS02006253WS02006251 CONDUIT     84.68     0  06:50      0.52    0.25    1.00
  WS02006252WS02006251 CONDUIT    399.78     0  06:50      3.18    1.47    1.00
  WS02006251WS02006249 CONDUIT    349.61     0  06:49      1.01    1.01    1.00
  WS02006249WS02006248 CONDUIT    333.55     0  06:51      1.03    1.83    1.00
  WS02006248WS02006247 CONDUIT    332.75     0  06:51      0.98    0.72    1.00
  WS02006247WS02006245 CONDUIT    332.21     0  06:51      0.96    2.63    1.00
  WS02006245WS02006243 CONDUIT    332.03     0  06:51      1.05    0.98    1.00
  WS02006243WS02006242 CONDUIT    331.84     0  06:51      0.92    0.71    1.00
  WS02006242WS02006240 CONDUIT    331.62     0  06:51      0.91    1.32    1.00
  WS02006240WS02006239 CONDUIT    331.52     0  06:51      0.96    1.04    1.00
  WS02006239WS02006238 CONDUIT    331.51     0  06:51      0.87    1.06    1.00
  WS02006238WS02006235 CONDUIT    332.18     0  06:51      1.45    0.74    1.00
  WS02006235WS02006234 CONDUIT    484.65     0  06:51      1.26    5.11    1.00
  WS02006234WS02006232 CONDUIT    485.62     0  06:51      1.39    0.98    1.00
  WS02006232WS02006231 CONDUIT    485.66     0  06:51      1.26    1.02    1.00
  WS02006231WS02006230 CONDUIT    490.24     0  06:52      1.34    7.44    0.96
  WS02006230WS02006229 CONDUIT    489.57     0  06:52      1.27   10.90    1.00
  WS02006228WS02006109 CONDUIT    499.70     0  06:52      0.99    2.18    1.00
  WS02006116WS02004401 CONDUIT    482.77     0  06:54      1.00    0.67    0.79
  WS02006115WS02006116 CONDUIT    488.93     0  06:54      1.02    0.63    0.71
  WS02006113WS02006111 CONDUIT    516.96     0  06:53      2.40    0.62    0.44
  WS02006112WS02006115 CONDUIT    496.36     0  06:53      0.72    0.29    0.83
  WS02006111WS02006112 CONDUIT    503.90     0  06:53      1.60    0.24    0.67
  WS02006110WS02006113 CONDUIT    500.88     0  06:53      1.20    0.46    0.77
  WS02006109WS02006110 CONDUIT    501.10     0  06:52      1.00    0.96    0.99
  WS02004411WS02004412 CONDUIT    463.03     0  06:58      0.87    0.66    0.65
  WS02004401WS02004402 CONDUIT    477.94     0  06:54      1.00    0.57    0.81
  WS02004413WS02003067 CONDUIT    461.21     0  06:59      1.02    0.20    0.56
  WS02004412WS02004413 CONDUIT    461.80     0  06:58      0.75    0.31    0.73
  WS02004410WS02004411 CONDUIT    465.14     0  06:58      0.90    0.64    0.63
  WS02004409WS02004410 CONDUIT    468.92     0  06:57      0.94    0.61    0.62
  WS02004407WS02004409 CONDUIT    473.66     0  06:56      1.44    0.17    0.44
  WS02004406WS02004407 CONDUIT    473.91     0  06:56      0.97    0.21    0.60
  WS02004405WS02004406 CONDUIT    474.25     0  06:56      1.10    0.94    0.92
  WS02004404WS02004405 CONDUIT    474.34     0  06:55      1.15    4.65    0.92
  WS02004403WS02004404 CONDUIT    474.47     0  06:55      0.98    0.34    0.88
  WS02004402WS02004403 CONDUIT    475.40     0  06:55      1.02    0.68    0.84
  WS02004139WS02001211 CONDUIT    381.60     0  07:13      0.90    0.48    0.59
  WS02004138WS02004139 CONDUIT    395.52     0  00:00      3.64    0.08    0.44
  WS02003067WS02003066 CONDUIT    461.34     0  06:59      1.11    0.15    0.40
  WS02001213WS02003059 CONDUIT    394.38     0  07:12      0.89    0.65    0.76
  WS02001212WS02001213 CONDUIT    391.92     0  07:12      1.32    0.60    0.46
  WS02001211WS02001212 CONDUIT    390.44     0  07:12      0.78    0.30    0.64
  WS02003072WS02003073 CONDUIT    856.86     0  07:02      1.67    1.85    0.46
  WS02003069WS02003072 CONDUIT    856.78     0  07:02      1.58    0.41    0.49
  WS02003060WS02003069 CONDUIT    856.51     0  07:01      1.82    0.34    0.43
  WS02003059WS02003060 CONDUIT    397.85     0  07:12      0.95    0.26    0.64
  HS02004901HS02004770 CONDUIT     11.87     0  02:10      0.05    0.04    0.34
  HS02004876HS02004881 CONDUIT     41.49     0  02:13      0.64    0.44    0.09
  HS02004870HS02004876 CONDUIT     33.01     0  02:13      0.44    0.02    0.11
  HS02004842HS02004848 CONDUIT      6.26     0  02:23      0.03    0.00    0.28
  HS02004837HS02004842 CONDUIT      6.49     0  02:24      0.42    0.00    0.29
  HS02004830HS02004837 CONDUIT     26.84     0  02:12      0.47    0.03    0.08
  HS02004824HS02004830 CONDUIT     26.99     0  02:13      0.50    0.04    0.08
  HS02004817HS02004824 CONDUIT     44.81     0  02:15      0.17    0.02    0.41
  HS02004770HS02004777 CONDUIT     60.87     0  02:09      0.25    0.11    0.35
  HS02004799HS02004480 CONDUIT    151.10     0  02:11      0.64    0.19    0.34
  HS02004792HS02004799 CONDUIT    137.99     0  02:11      0.73    0.08    0.27
  HS02004788HS02004792 CONDUIT     80.25     0  02:12      0.88    0.05    0.13
  HS02004785HS02004788 CONDUIT     60.53     0  02:11      0.55    0.46    0.16
  HS02004777HS02004785 CONDUIT     60.46     0  02:10      0.30    0.07    0.29
  HS02004480HS02004478 CONDUIT    178.52     0  02:12      1.02    0.75    0.25
  HS02004479HS02004480 CONDUIT     28.08     0  02:14      0.17    0.03    0.33
  HS02004862HS02004870 CONDUIT     24.30     0  02:14      0.50    0.03    0.07
  HS02004848HS02004852 CONDUIT     10.10     0  02:12      0.34    0.01    0.04
  HS02004856HS02004862 CONDUIT     16.54     0  02:13      0.37    0.02    0.06
  HS02004852HS02004856 CONDUIT     10.05     0  02:14      0.15    0.01    0.10
  HS02004802HS02004478 CONDUIT     62.20     0  02:16      0.33    0.05    0.27
  HS02004478WS02006287 CONDUIT    239.03     0  02:13      1.40    0.07    0.19
  HS02004817HS02004807 CONDUIT     46.02     0  02:17      0.12    0.03    0.53
  HS02004807HS02004802 CONDUIT     61.74     0  02:15      0.28    0.12    0.32
  YS02001759YS02001757 CONDUIT    236.88     0  02:39      0.30    0.17    1.00
  YS02001762YS02001759 CONDUIT    133.89     0  03:06      0.17    0.15    1.00
  YS02001765YS02001762 CONDUIT    131.21     0  03:06      0.24    0.12    1.00
  YS02001770YS02001767 CONDUIT    131.82     0  02:31      0.29    0.52    1.00
  YS02001774YS02001770 CONDUIT     38.83     0  02:25      0.13    0.02    1.00
  YS02001779YS02001774 CONDUIT     23.80     0  02:25      0.07    0.01    1.00
  YS02001649YS02001757 CONDUIT    348.02     0  02:47      0.44    0.21    1.00
  YS02001767YS02001765 CONDUIT    128.70     0  03:06      0.27    0.16    1.00
  YS02006561YS02001783 CONDUIT    392.63     0  02:47      1.90    0.20    0.56
  YS02001783YS02001784 CONDUIT    411.69     0  03:06      1.33    0.57    0.85
  YS02001784YS02001785 CONDUIT    412.42     0  03:07      1.42    0.96    0.91
  YS02001788YS02001790 CONDUIT    490.68     0  03:16      1.98    0.36    0.98
  YS02001790YS02001791 CONDUIT    545.35     0  03:17      2.32    0.59    1.00
  YS02001791YS02001793 CONDUIT    585.18     0  03:17      4.70    0.25    1.00
  YS02001910YS02001907 CONDUIT    123.09     0  03:04      0.49    0.07    0.79
  YS02001786YS02001788 CONDUIT    428.26     0  03:07      1.92    0.83    0.92
  YS02001915YS02001910 CONDUIT    122.61     0  02:52      0.45    0.06    0.58
  YS02001918YS02001915 CONDUIT     43.21     0  03:04      0.44    0.02    0.30
  YS02001923YS02001920 CONDUIT     38.34     0  03:01      0.49    0.02    0.16
  YS02001926YS02001923 CONDUIT     38.31     0  03:01      0.54    0.05    0.15
  YS02001929YS02001926 CONDUIT     38.29     0  03:01      0.57    0.02    0.14
  YS02001920YS02001918 CONDUIT     41.33     0  03:03      0.50    0.04    0.17
  YS02001629YS02163301 CONDUIT     80.40     0  02:42      0.11    0.10    1.00
  YS02001619YS02001622 CONDUIT    106.87     0  03:17      0.66    0.16    1.00
  YS02001622YS02001625 CONDUIT    156.32     0  03:17      0.27    0.08    1.00
  YS02001625YS02001629 CONDUIT    156.38     0  03:17      0.26    0.07    1.00
  YS02163301YS02001633 CONDUIT     79.93     0  02:46      0.10    0.08    1.00
  YS02163601YS02164001 CONDUIT    164.15     0  02:46      0.21    0.15    1.00
  YS02164001YS02001641 CONDUIT    161.37     0  02:49      0.21    0.22    1.00
  YS02001641YS02001644 CONDUIT    161.69     0  02:50      0.21    0.52    1.00
  YS02001647YS02001649 CONDUIT    265.00     0  04:51      0.34    0.14    1.00
  YS02006553YS02006556 CONDUIT    268.91     0  02:47      0.37    0.23    0.87
  YS02006556YS02006558 CONDUIT    269.25     0  02:49      0.36    0.21    0.90
  YSB6556YSB1171       CONDUIT     15.36     0  02:14      0.06    0.02    0.60
  YS02001907YS02006553 CONDUIT    268.93     0  02:47      0.30    0.32    0.99
  YS02006558YS02006561 CONDUIT    410.33     0  02:48      2.55    0.91    0.56
  YS02001633YS02163601 CONDUIT    165.17     0  02:46      0.21    0.17    1.00
  YS02001644YS02001647 CONDUIT    266.88     0  04:51      0.34    0.16    1.00
  YS02001745YS02001748 CONDUIT    205.30     0  03:20      1.47    0.08    0.93
  YS02001748YS02001751 CONDUIT    182.14     0  03:21      1.13    0.09    1.00
  YS02001751YS02001754 CONDUIT    127.27     0  03:17      0.90    0.06    1.00
  YS02001754YS02001757 CONDUIT    128.10     0  03:17      0.33    0.05    1.00
  YS02001882YS02001884 CONDUIT      4.23     0  02:04      0.07    0.00    0.52
  YS02001884YS02001887 CONDUIT     11.84     0  02:04      0.05    0.02    0.61
  YS02001890YS02001895 CONDUIT    150.38     0  02:32      0.32    0.07    0.58
  YS02001895YS02001898 CONDUIT    150.49     0  02:32      0.45    0.26    0.45
  YS02001898YS02001901 CONDUIT    150.08     0  02:34      0.36    0.10    0.53
  YS02001901YS02001904 CONDUIT    149.05     0  02:36      0.32    0.23    0.58
  YS02001904YS02001907 CONDUIT    150.16     0  02:34      0.24    0.05    0.74
  YS02001887YS02001890 CONDUIT    151.80     0  02:33      0.27    0.26    0.67
  YS02001652YS02001649 CONDUIT    118.64     0  03:13      0.37    0.06    1.00
  YS02001655YS02001652 CONDUIT    117.93     0  03:13      0.93    0.06    1.00
  YS02001658YS02001655 CONDUIT    172.69     0  03:12      1.30    0.07    1.00
  YS02001661YS02001658 CONDUIT    205.45     0  03:17      1.53    0.08    0.95
  YS02001664YS02001661 CONDUIT    292.69     0  04:17      1.23    0.09    0.70
  YSB1154YSB6556       CONDUIT     15.08     0  02:12      0.19    0.03    0.49
  YSB1174YSB1171       CONDUIT     13.26     0  02:08      0.06    0.02    0.60
  YSB1171HS02004479    CONDUIT     27.84     0  02:13      0.54    0.02    0.47
  HS02004881HS02006253 CONDUIT     46.29     0  02:13      1.78    0.01    0.44
  YS02001793JiankangQianchi CONDUIT    601.60     0  03:00     14.22    0.05    1.00
  YS02001757CaochengTiaoxuchi CONDUIT    654.80     0  02:46      1.26    0.29    1.00
  WSF200WS02003060     CONDUIT    461.67     0  07:00      1.74    0.10    0.32
  1                    CONDUIT    858.79     0  07:03      3.19    0.30    0.37
  CC-Pump-1            PUMP       200.00     0  04:00              1.00
  CC-Pump-2            PUMP       199.61     0  06:50              1.00
  JK-Pump-1            PUMP       300.00     0  00:00              1.00
  JK-Pump-2            PUMP       683.00     0  02:30              1.00
  XR-Pump-1            PUMP        95.00     0  00:00              1.00
  XR-Pump-2            PUMP        95.00     0  00:00              1.00
  XR-Pump-3            PUMP        95.00     0  00:00              1.00
  XR-Pump-4            PUMP        95.00     0  00:00              1.00
  
  
  ***************************
  Flow Classification Summary
  ***************************
  
  -------------------------------------------------------------------------------------
                      Adjusted    ---------- Fraction of Time in Flow Class ---------- 
                       /Actual         Up    Down  Sub   Sup   Up    Down  Norm  Inlet 
  Conduit               Length    Dry  Dry   Dry   Crit  Crit  Crit  Crit  Ltd   Ctrl  
  -------------------------------------------------------------------------------------
  WS02003066WSF200        1.00   0.01  0.03  0.00  0.00  0.95  0.00  0.00  0.87  0.00
  WS02006287WS02006284    1.00   0.05  0.03  0.00  0.72  0.20  0.00  0.00  0.77  0.00
  WS02006284WS02006280    1.00   0.06  0.00  0.00  0.00  0.00  0.00  0.94  0.00  0.00
  WS02006280WS02006229    1.00   0.06  0.00  0.00  0.00  0.00  0.00  0.94  0.00  0.00
  WS02006229WS02006228    1.00   0.00  0.00  0.00  0.99  0.00  0.00  0.01  0.00  0.00
  WS02006256WS02006235    1.00   0.00  0.00  0.00  1.00  0.00  0.00  0.00  0.00  0.00
  WS02006253WS02006251    1.00   0.03  0.02  0.00  0.94  0.00  0.01  0.00  0.00  0.00
  WS02006252WS02006251    1.00   0.32  0.00  0.00  0.00  0.00  0.68  0.00  0.00  0.00
  WS02006251WS02006249    1.00   0.00  0.00  0.00  1.00  0.00  0.00  0.00  0.62  0.00
  WS02006249WS02006248    1.00   0.00  0.01  0.00  0.70  0.00  0.29  0.00  0.00  0.00
  WS02006248WS02006247    1.00   0.01  0.00  0.00  0.99  0.00  0.00  0.00  0.41  0.00
  WS02006247WS02006245    1.00   0.01  0.00  0.00  0.97  0.00  0.00  0.02  0.00  0.00
  WS02006245WS02006243    1.00   0.01  0.00  0.00  0.88  0.00  0.00  0.11  0.00  0.00
  WS02006243WS02006242    1.00   0.00  0.00  0.00  0.99  0.00  0.00  0.00  0.48  0.00
  WS02006242WS02006240    1.00   0.00  0.00  0.00  0.99  0.00  0.01  0.00  0.00  0.00
  WS02006240WS02006239    1.00   0.00  0.00  0.00  0.85  0.00  0.00  0.14  0.02  0.00
  WS02006239WS02006238    1.00   0.00  0.00  0.00  1.00  0.00  0.00  0.00  0.19  0.00
  WS02006238WS02006235    1.00   0.00  0.00  0.00  1.00  0.00  0.00  0.00  0.00  0.00
  WS02006235WS02006234    1.00   0.00  0.00  0.00  0.90  0.00  0.10  0.00  0.00  0.00
  WS02006234WS02006232    1.00   0.00  0.00  0.00  1.00  0.00  0.00  0.00  0.15  0.00
  WS02006232WS02006231    1.00   0.00  0.00  0.00  1.00  0.00  0.00  0.00  0.00  0.00
  WS02006231WS02006230    1.00   0.00  0.00  0.00  0.21  0.00  0.78  0.00  0.00  0.00
  WS02006230WS02006229    1.00   0.00  0.00  0.00  0.99  0.00  0.00  0.01  0.00  0.00
  WS02006228WS02006109    1.00   0.00  0.00  0.00  1.00  0.00  0.00  0.00  0.01  0.00
  WS02006116WS02004401    1.00   0.01  0.00  0.00  0.99  0.00  0.00  0.00  0.00  0.00
  WS02006115WS02006116    1.00   0.01  0.00  0.00  0.98  0.00  0.00  0.00  0.00  0.00
  WS02006113WS02006111    1.00   0.01  0.00  0.00  0.00  0.99  0.00  0.00  0.26  0.00
  WS02006112WS02006115    1.00   0.01  0.00  0.00  0.98  0.00  0.00  0.00  0.00  0.00
  WS02006111WS02006112    1.00   0.01  0.00  0.00  0.99  0.00  0.00  0.00  0.98  0.00
  WS02006110WS02006113    1.00   0.01  0.00  0.00  0.99  0.00  0.00  0.00  0.00  0.00
  WS02006109WS02006110    1.00   0.00  0.01  0.00  0.99  0.00  0.00  0.00  0.00  0.00
  WS02004411WS02004412    1.00   0.03  0.00  0.00  0.97  0.00  0.00  0.00  0.00  0.00
  WS02004401WS02004402    1.00   0.01  0.00  0.00  0.99  0.00  0.00  0.00  0.00  0.00
  WS02004413WS02003067    1.00   0.03  0.01  0.00  0.00  0.00  0.96  0.00  0.00  0.00
  WS02004412WS02004413    1.00   0.03  0.00  0.00  0.97  0.00  0.00  0.00  0.01  0.00
  WS02004410WS02004411    1.00   0.02  0.00  0.00  0.98  0.00  0.00  0.00  0.00  0.00
  WS02004409WS02004410    1.00   0.02  0.00  0.00  0.98  0.00  0.00  0.00  0.02  0.00
  WS02004407WS02004409    1.00   0.02  0.00  0.00  0.97  0.00  0.00  0.00  0.95  0.00
  WS02004406WS02004407    1.00   0.00  0.02  0.00  0.98  0.00  0.00  0.00  0.00  0.00
  WS02004405WS02004406    1.00   0.00  0.00  0.00  1.00  0.00  0.00  0.00  0.00  0.00
  WS02004404WS02004405    1.00   0.00  0.00  0.00  1.00  0.00  0.00  0.00  0.00  0.00
  WS02004403WS02004404    1.00   0.00  0.02  0.00  0.98  0.00  0.00  0.00  0.00  0.00
  WS02004402WS02004403    1.00   0.01  0.00  0.00  0.98  0.00  0.00  0.00  0.00  0.00
  WS02004139WS02001211    1.00   0.00  0.00  0.00  1.00  0.00  0.00  0.00  0.00  0.00
  WS02004138WS02004139    1.00   0.00  0.00  0.00  0.99  0.00  0.00  0.00  1.00  0.00
  WS02003067WS02003066    1.00   0.04  0.01  0.00  0.96  0.00  0.00  0.00  0.00  0.00
  WS02001213WS02003059    1.00   0.00  0.00  0.00  1.00  0.00  0.00  0.00  0.00  0.00
  WS02001212WS02001213    1.00   0.00  0.00  0.00  0.86  0.00  0.14  0.00  0.00  0.00
  WS02001211WS02001212    1.00   0.00  0.00  0.00  1.00  0.00  0.00  0.00  0.00  0.00
  WS02003072WS02003073    1.00   0.00  0.00  0.00  0.00  0.00  0.00  1.00  0.00  0.00
  WS02003069WS02003072    1.00   0.00  0.00  0.00  1.00  0.00  0.00  0.00  0.20  0.00
  WS02003060WS02003069    1.00   0.00  0.00  0.00  0.98  0.02  0.00  0.00  0.14  0.00
  WS02003059WS02003060    1.00   0.00  0.00  0.00  1.00  0.00  0.00  0.00  0.01  0.00
  HS02004901HS02004770    1.00   0.06  0.00  0.00  0.94  0.00  0.00  0.00  0.01  0.00
  HS02004876HS02004881    1.00   0.01  0.00  0.00  0.99  0.00  0.00  0.00  0.00  0.00
  HS02004870HS02004876    1.00   0.00  0.00  0.00  0.99  0.01  0.00  0.00  0.95  0.00
  HS02004842HS02004848    1.00   0.00  0.06  0.00  0.94  0.00  0.00  0.00  0.65  0.00
  HS02004837HS02004842    1.00   0.00  0.00  0.00  1.00  0.00  0.00  0.00  0.11  0.00
  HS02004830HS02004837    1.00   0.00  0.00  0.00  1.00  0.00  0.00  0.00  0.99  0.00
  HS02004824HS02004830    1.00   0.00  0.00  0.00  1.00  0.00  0.00  0.00  0.00  0.00
  HS02004817HS02004824    1.00   0.00  0.00  0.00  1.00  0.00  0.00  0.00  1.00  0.00
  HS02004770HS02004777    1.00   0.00  0.06  0.00  0.94  0.00  0.00  0.00  0.05  0.00
  HS02004799HS02004480    1.00   0.00  0.02  0.00  0.92  0.00  0.06  0.00  0.00  0.00
  HS02004792HS02004799    1.00   0.00  0.00  0.00  0.99  0.01  0.00  0.00  0.98  0.00
  HS02004788HS02004792    1.00   0.00  0.00  0.00  0.99  0.01  0.00  0.00  0.98  0.00
  HS02004785HS02004788    1.00   0.00  0.00  0.00  1.00  0.00  0.00  0.00  0.00  0.00
  HS02004777HS02004785    1.00   0.00  0.00  0.00  1.00  0.00  0.00  0.00  0.17  0.00
  HS02004480HS02004478    1.00   0.06  0.00  0.00  0.75  0.00  0.00  0.19  0.00  0.00
  HS02004479HS02004480    1.00   0.02  0.00  0.00  0.98  0.00  0.00  0.00  0.15  0.00
  HS02004862HS02004870    1.00   0.00  0.00  0.00  1.00  0.00  0.00  0.00  0.06  0.00
  HS02004848HS02004852    1.00   0.06  0.00  0.00  0.94  0.00  0.00  0.00  0.72  0.00
  HS02004856HS02004862    1.00   0.00  0.10  0.00  0.90  0.00  0.00  0.00  0.77  0.00
  HS02004852HS02004856    1.00   0.06  0.01  0.00  0.93  0.00  0.00  0.00  0.84  0.00
  HS02004802HS02004478    1.00   0.06  0.01  0.00  0.93  0.00  0.00  0.00  0.01  0.00
  HS02004478WS02006287    1.00   0.08  0.00  0.00  0.85  0.07  0.00  0.00  0.76  0.00
  HS02004817HS02004807    1.00   0.00  0.06  0.00  0.94  0.00  0.00  0.00  0.00  0.00
  HS02004807HS02004802    1.00   0.06  0.00  0.00  0.94  0.00  0.00  0.00  0.01  0.00
  YS02001759YS02001757    1.00   0.00  0.00  0.00  1.00  0.00  0.00  0.00  0.18  0.00
  YS02001762YS02001759    1.00   0.00  0.00  0.00  1.00  0.00  0.00  0.00  0.04  0.00
  YS02001765YS02001762    1.00   0.00  0.00  0.00  1.00  0.00  0.00  0.00  0.20  0.00
  YS02001770YS02001767    1.00   0.00  0.00  0.00  1.00  0.00  0.00  0.00  0.00  0.00
  YS02001774YS02001770    1.00   0.00  0.07  0.00  0.93  0.00  0.00  0.00  0.05  0.00
  YS02001779YS02001774    1.00   0.00  0.00  0.00  1.00  0.00  0.00  0.00  0.24  0.00
  YS02001649YS02001757    1.00   0.00  0.00  0.00  1.00  0.00  0.00  0.00  0.18  0.00
  YS02001767YS02001765    1.00   0.00  0.00  0.00  1.00  0.00  0.00  0.00  0.01  0.00
  YS02006561YS02001783    1.00   0.10  0.00  0.00  0.07  0.83  0.00  0.00  0.68  0.00
  YS02001783YS02001784    1.00   0.00  0.10  0.00  0.90  0.00  0.00  0.00  0.01  0.00
  YS02001784YS02001785    1.00   0.00  0.00  0.00  1.00  0.00  0.00  0.00  0.23  0.00
  YS02001788YS02001790    1.00   0.00  0.00  0.00  0.22  0.78  0.00  0.00  0.63  0.00
  YS02001790YS02001791    1.00   0.00  0.00  0.00  0.14  0.86  0.00  0.00  0.45  0.00
  YS02001791YS02001793    1.00   0.00  0.00  0.00  0.21  0.79  0.00  0.00  0.04  0.00
  YS02001910YS02001907    1.00   0.00  0.00  0.00  0.98  0.00  0.00  0.02  0.13  0.00
  YS02001786YS02001788    1.00   0.00  0.00  0.00  0.19  0.81  0.00  0.00  0.00  0.00
  YS02001915YS02001910    1.00   0.00  0.00  0.00  0.99  0.01  0.00  0.00  0.22  0.00
  YS02001918YS02001915    1.00   0.00  0.00  0.00  0.99  0.01  0.00  0.00  0.74  0.00
  YS02001923YS02001920    1.00   0.00  0.00  0.00  1.00  0.00  0.00  0.00  1.00  0.00
  YS02001926YS02001923    1.00   0.00  0.04  0.00  0.00  0.00  0.96  0.00  0.00  0.00
  YS02001929YS02001926    1.00   0.00  0.06  0.00  0.94  0.00  0.00  0.00  0.87  0.00
  YS02001920YS02001918    1.00   0.00  0.00  0.00  1.00  0.00  0.00  0.00  0.00  0.00
  YS02001629YS02163301    1.00   0.08  0.01  0.00  0.91  0.00  0.00  0.00  0.00  0.00
  YS02001619YS02001622    1.00   0.06  0.00  0.00  0.94  0.00  0.00  0.00  0.00  0.00
  YS02001622YS02001625    1.00   0.06  0.00  0.00  0.94  0.00  0.00  0.00  0.11  0.00
  YS02001625YS02001629    1.00   0.06  0.05  0.00  0.87  0.00  0.02  0.00  0.00  0.00
  YS02163301YS02001633    1.00   0.00  0.08  0.00  0.92  0.00  0.00  0.00  0.00  0.00
  YS02163601YS02164001    1.00   0.00  0.04  0.00  0.96  0.00  0.00  0.00  0.00  0.00
  YS02164001YS02001641    1.00   0.01  0.03  0.00  0.96  0.00  0.00  0.00  0.07  0.00
  YS02001641YS02001644    1.00   0.00  0.00  0.00  1.00  0.00  0.00  0.00  0.00  0.00
  YS02001647YS02001649    1.00   0.00  0.10  0.00  0.90  0.00  0.00  0.00  0.01  0.00
  YS02006553YS02006556    1.00   0.01  0.00  0.00  0.99  0.00  0.00  0.00  0.03  0.00
  YS02006556YS02006558    1.00   0.00  0.00  0.00  1.00  0.00  0.00  0.00  0.00  0.00
  YSB6556YSB1171          1.00   0.02  0.03  0.00  0.94  0.00  0.00  0.00  0.00  0.00
  YS02001907YS02006553    1.00   0.00  0.01  0.00  0.99  0.00  0.00  0.00  0.00  0.00
  YS02006558YS02006561    1.00   0.10  0.00  0.00  0.00  0.90  0.00  0.00  0.72  0.00
  YS02001633YS02163601    1.00   0.00  0.00  0.00  1.00  0.00  0.00  0.00  0.18  0.00
  YS02001644YS02001647    1.00   0.00  0.10  0.00  0.90  0.00  0.00  0.00  0.00  0.00
  YS02001745YS02001748    1.00   0.00  0.00  0.00  0.84  0.01  0.00  0.15  0.09  0.00
  YS02001748YS02001751    1.00   0.00  0.00  0.00  0.95  0.05  0.00  0.00  0.20  0.00
  YS02001751YS02001754    1.00   0.00  0.00  0.00  0.89  0.00  0.00  0.11  0.02  0.00
  YS02001754YS02001757    1.00   0.00  0.00  0.00  1.00  0.00  0.00  0.00  0.24  0.00
  YS02001882YS02001884    1.00   0.08  0.01  0.00  0.92  0.00  0.00  0.00  0.00  0.00
  YS02001884YS02001887    1.00   0.03  0.02  0.00  0.95  0.00  0.00  0.00  0.00  0.00
  YS02001890YS02001895    1.00   0.00  0.08  0.00  0.91  0.00  0.00  0.00  0.00  0.00
  YS02001895YS02001898    1.00   0.09  0.00  0.00  0.89  0.00  0.02  0.00  0.00  0.00
  YS02001898YS02001901    1.00   0.09  0.00  0.00  0.91  0.00  0.00  0.00  0.02  0.00
  YS02001901YS02001904    1.00   0.09  0.00  0.00  0.91  0.00  0.00  0.00  0.00  0.00
  YS02001904YS02001907    1.00   0.00  0.08  0.00  0.91  0.00  0.00  0.00  0.00  0.00
  YS02001887YS02001890    1.00   0.00  0.00  0.00  0.98  0.00  0.02  0.00  0.00  0.00
  YS02001652YS02001649    1.00   0.00  0.00  0.00  1.00  0.00  0.00  0.00  0.22  0.00
  YS02001655YS02001652    1.00   0.00  0.00  0.00  0.89  0.00  0.00  0.11  0.02  0.00
  YS02001658YS02001655    1.00   0.00  0.07  0.00  0.87  0.06  0.00  0.00  0.09  0.00
  YS02001661YS02001658    1.00   0.07  0.00  0.00  0.84  0.09  0.00  0.00  0.10  0.00
  YS02001664YS02001661    1.00   0.06  0.00  0.00  0.83  0.11  0.00  0.00  0.33  0.00
  YSB1154YSB6556          1.00   0.06  0.00  0.00  0.94  0.00  0.00  0.00  0.02  0.00
  YSB1174YSB1171          1.00   0.03  0.02  0.00  0.96  0.00  0.00  0.00  0.00  0.00
  YSB1171HS02004479       1.00   0.02  0.00  0.00  0.97  0.00  0.00  0.00  0.13  0.00
  HS02004881HS02006253    1.00   0.03  0.00  0.00  0.30  0.01  0.00  0.67  0.12  0.00
  YS02001793JiankangQianchi    1.00   0.00  0.00  0.00  0.60  0.40  0.00  0.00  0.51  0.00
  YS02001757CaochengTiaoxuchi    1.00   0.00  0.13  0.00  0.87  0.00  0.00  0.00  0.00  0.00
  WSF200WS02003060        1.00   0.00  0.01  0.00  0.84  0.14  0.00  0.00  0.73  0.00
  1                       1.00   0.00  0.00  0.00  0.00  1.00  0.00  0.00  0.47  0.00
  
  
  *************************
  Conduit Surcharge Summary
  *************************
  
  ----------------------------------------------------------------------------
                                                           Hours        Hours 
                         --------- Hours Full --------   Above Full   Capacity
  Conduit                Both Ends  Upstream  Dnstream   Normal Flow   Limited
  ----------------------------------------------------------------------------
  WS02006229WS02006228        0.59      0.62      0.59      1.11         0.59
  WS02006256WS02006235        4.08      4.09      6.41      3.03         0.01
  WS02006253WS02006251        0.07      0.07      0.08      0.01         0.01
  WS02006252WS02006251        0.07      0.07      0.19      0.16         0.01
  WS02006251WS02006249        0.08      0.08      0.08      0.01         0.01
  WS02006249WS02006248        0.08      0.08      0.08      0.54         0.01
  WS02006248WS02006247        0.08      0.08      0.10      0.01         0.01
  WS02006247WS02006245        0.10      0.11      0.10      1.02         0.10
  WS02006245WS02006243        0.10      0.10      0.11      0.01         0.01
  WS02006243WS02006242        0.12      0.12      0.17      0.01         0.01
  WS02006242WS02006240        0.15      0.15      0.20      0.18         0.01
  WS02006240WS02006239        0.16      0.16      0.17      0.04         0.04
  WS02006239WS02006238        0.21      0.21      0.23      0.05         0.05
  WS02006238WS02006235        0.22      0.22      0.25      0.01         0.01
  WS02006235WS02006234        0.16      0.16      0.21      3.92         0.01
  WS02006234WS02006232        0.18      0.18      0.26      0.01         0.01
  WS02006232WS02006231        0.04      0.04      0.26      0.02         0.01
  WS02006231WS02006230        0.01      0.01      0.05      4.30         0.01
  WS02006230WS02006229        0.78      0.83      0.78      4.99         0.78
  WS02006228WS02006109        0.60      0.70      0.60      2.69         0.60
  WS02006111WS02006112        0.01      0.01      1.34      0.01         0.01
  WS02006110WS02006113        0.01      0.01      0.65      0.01         0.01
  WS02006109WS02006110        0.01      0.01      0.69      0.01         0.01
  WS02004404WS02004405        0.01      0.01      0.01      4.87         0.01
  WS02003072WS02003073        0.01      0.01      0.01      4.53         0.01
  YS02001759YS02001757        5.43      5.43      5.52      0.01         0.01
  YS02001762YS02001759        5.39      5.39      5.43      0.01         0.01
  YS02001765YS02001762        5.35      5.35      5.40      0.01         0.01
  YS02001770YS02001767        5.30      5.30      5.30      0.01         0.33
  YS02001774YS02001770        5.25      5.25      5.38      0.01         0.01
  YS02001779YS02001774        4.73      4.73      5.38      0.01         0.01
  YS02001649YS02001757        5.41      5.41      5.52      0.01         0.01
  YS02001767YS02001765        5.30      5.30      5.35      0.01         0.01
  YS02001788YS02001790        0.01      0.01      0.66      0.01         0.01
  YS02001790YS02001791        0.66      0.66      0.85      0.01         0.01
  YS02001791YS02001793        0.85      0.85      1.28      0.01         0.01
  YS02001629YS02163301        5.22      5.22      5.28      0.01         0.01
  YS02001619YS02001622        4.34      4.34      4.38      0.01         0.01
  YS02001622YS02001625        4.38      4.38      5.03      0.01         0.01
  YS02001625YS02001629        4.34      4.34      5.03      0.01         0.01
  YS02163301YS02001633        5.28      5.28      5.35      0.01         0.01
  YS02163601YS02164001        5.35      5.35      5.40      0.01         0.01
  YS02164001YS02001641        5.35      5.35      5.37      0.01         0.01
  YS02001641YS02001644        5.37      5.37      5.37      0.01         0.44
  YS02001647YS02001649        4.97      4.97      5.41      0.01         0.01
  YS02001907YS02006553        0.01      0.01      0.52      0.01         0.01
  YS02001633YS02163601        5.34      5.34      5.40      0.01         0.01
  YS02001644YS02001647        4.97      4.97      5.37      0.01         0.01
  YS02001745YS02001748        0.01      0.01      3.85      0.01         0.01
  YS02001748YS02001751        4.07      4.07      4.41      0.01         0.01
  YS02001751YS02001754        4.41      4.41      4.83      0.01         0.01
  YS02001754YS02001757        4.95      4.95      5.52      0.01         0.01
  YS02001652YS02001649        5.02      5.02      5.41      0.01         0.01
  YS02001655YS02001652        4.46      4.46      4.91      0.01         0.01
  YS02001658YS02001655        3.84      3.84      4.46      0.01         0.01
  YS02001661YS02001658        0.01      0.01      3.84      0.01         0.01
  YS02001793JiankangQianchi        1.17      1.17      3.18      0.01         0.01
  YS02001757CaochengTiaoxuchi        4.16      4.16      5.52      0.01         0.01
  
  
  ***************
  Pumping Summary
  ***************
  
  ---------------------------------------------------------------------------------------------------------
                                                  Min       Avg       Max     Total     Power    % Time Off
                        Percent   Number of      Flow      Flow      Flow    Volume     Usage    Pump Curve
  Pump                 Utilized   Start-Ups       LPS       LPS       LPS  10^6 ltr     Kw-hr    Low   High
  ---------------------------------------------------------------------------------------------------------
  CC-Pump-1               25.52           5      0.00    132.98    200.00     0.840      0.67    0.0    0.0
  CC-Pump-2                4.25           1      0.00     94.04    199.61     0.120      0.14    0.0    0.0
  JK-Pump-1               42.55           5      0.00    142.31    300.00     1.856     35.49    0.0    0.0
  JK-Pump-2               38.30           4      0.00    225.25    683.00     2.704     47.96    0.0   97.1
  XR-Pump-1               91.48           4      0.00     91.53     95.00     2.280     44.77    0.0    0.0
  XR-Pump-2               85.09           5      0.00     89.17     95.00     2.052     40.64    0.0    0.0
  XR-Pump-3               85.09           5      0.00     89.17     95.00     2.052     40.64    0.0    0.0
  XR-Pump-4               85.09           5      0.00     89.17     95.00     2.052     40.64    0.0    0.0
  
  
  ***************************
  Link Pollutant Load Summary
  ***************************
  
  ------------------------------------------------------------------------------------------
                                 COD            SS            TN            TP         NH4-N
  Link                            kg            kg            kg            kg            kg
  ------------------------------------------------------------------------------------------
  WS02003066WSF200           262.780       449.854        10.786         1.128         6.172
  WS02006287WS02006284       121.678       210.730         6.548         0.744         3.887
  WS02006284WS02006280       122.101       211.413         6.587         0.749         3.912
  WS02006280WS02006229       122.084       211.382         6.586         0.749         3.911
  WS02006229WS02006228       260.586       446.192        10.337         1.067         5.881
  WS02006256WS02006235        63.327       105.908         1.937         0.177         1.053
  WS02006253WS02006251        18.327        33.290         0.503         0.043         0.263
  WS02006252WS02006251        62.314       104.807         1.492         0.115         0.753
  WS02006251WS02006249        77.521       132.893         1.919         0.152         0.978
  WS02006249WS02006248        77.188       132.321         1.910         0.151         0.973
  WS02006248WS02006247        77.406       132.707         1.913         0.152         0.975
  WS02006247WS02006245        77.517       132.896         1.915         0.152         0.975
  WS02006245WS02006243        77.447       132.816         1.908         0.151         0.971
  WS02006243WS02006242        78.676       134.903         1.943         0.154         0.990
  WS02006242WS02006240        81.806       140.173         2.030         0.161         1.036
  WS02006240WS02006239        85.311       146.070         2.130         0.170         1.089
  WS02006239WS02006238        89.582       153.039         2.276         0.184         1.171
  WS02006238WS02006235        92.195       157.255         2.362         0.192         1.218
  WS02006235WS02006234       139.785       236.967         3.817         0.326         2.009
  WS02006234WS02006232       139.901       237.125         3.828         0.327         2.016
  WS02006232WS02006231       139.669       236.740         3.818         0.326         2.011
  WS02006231WS02006230       139.523       236.517         3.811         0.325         2.006
  WS02006230WS02006229       139.402       236.307         3.810         0.325         2.006
  WS02006228WS02006109       259.882       445.054        10.289         1.061         5.852
  WS02006116WS02004401       267.557       457.797        10.943         1.143         6.258
  WS02006115WS02006116       268.112       458.708        10.966         1.145         6.271
  WS02006113WS02006111       266.847       456.167        10.997         1.151         6.296
  WS02006112WS02006115       268.851       459.933        11.006         1.150         6.295
  WS02006111WS02006112       266.446       455.504        10.976         1.148         6.284
  WS02006110WS02006113       267.153       456.672        11.019         1.153         6.309
  WS02006109WS02006110       267.988       458.040        11.075         1.160         6.343
  WS02004411WS02004412       264.726       453.096        10.886         1.139         6.231
  WS02004401WS02004402       266.821       456.579        10.907         1.139         6.237
  WS02004413WS02003067       262.916       450.072        10.791         1.129         6.175
  WS02004412WS02004413       264.164       452.166        10.859         1.136         6.215
  WS02004410WS02004411       265.064       453.651        10.902         1.141         6.240
  WS02004409WS02004410       265.481       454.341        10.922         1.143         6.252
  WS02004407WS02004409       265.577       454.489        10.924         1.143         6.253
  WS02004406WS02004407       265.342       454.081        10.911         1.142         6.245
  WS02004405WS02004406       266.254       455.590        10.959         1.147         6.274
  WS02004404WS02004405       266.377       455.788        10.944         1.145         6.263
  WS02004403WS02004404       265.643       454.633        10.854         1.133         6.206
  WS02004402WS02004403       266.278       455.687        10.885         1.137         6.224
  WS02004139WS02001211      1368.195      2195.351       127.374        15.844        79.375
  WS02004138WS02004139      1366.142      2192.067       127.177        15.819        79.252
  WS02003067WS02003066       262.908       450.068        10.793         1.129         6.176
  WS02001213WS02003059      1418.576      2275.959       132.212        16.448        82.399
  WS02001212WS02001213      1417.805      2274.721       132.140        16.439        82.354
  WS02001211WS02001212      1419.261      2277.055       132.277        16.456        82.440
  WS02003072WS02003073      1796.379      2909.810       154.077        18.962        95.497
  WS02003069WS02003072      1799.406      2914.637       154.370        18.998        95.680
  WS02003060WS02003069      1797.966      2912.345       154.220        18.980        95.586
  WS02003059WS02003060      1420.656      2279.286       132.412        16.473        82.524
  HS02004901HS02004770         3.186         5.799         0.062         0.004         0.028
  HS02004876HS02004881        12.554        23.119         0.354         0.030         0.185
  HS02004870HS02004876         9.652        17.674         0.306         0.027         0.164
  HS02004842HS02004848         1.767         3.123         0.039         0.003         0.018
  HS02004837HS02004842         6.392        10.488         0.507         0.061         0.311
  HS02004830HS02004837        50.188        82.121         4.263         0.525         2.644
  HS02004824HS02004830        50.939        83.322         4.335         0.534         2.689
  HS02004817HS02004824        57.851        96.016         4.506         0.546         2.776
  HS02004770HS02004777        12.326        22.635         0.266         0.017         0.121
  HS02004799HS02004480        50.769        89.062         2.110         0.223         1.198
  HS02004792HS02004799        47.080        81.850         2.088         0.225         1.197
  HS02004788HS02004792        30.317        52.481         1.619         0.181         0.951
  HS02004785HS02004788        13.825        25.044         0.419         0.037         0.217
  HS02004777HS02004785        13.286        24.174         0.370         0.031         0.187
  HS02004480HS02004478        61.358       109.047         2.245         0.229         1.254
  HS02004479HS02004480        14.852        26.779         0.540         0.057         0.309
  HS02004862HS02004870         7.223        12.942         0.257         0.025         0.141
  HS02004848HS02004852         2.142         3.828         0.047         0.003         0.021
  HS02004856HS02004862         4.123         7.648         0.085         0.005         0.040
  HS02004852HS02004856         2.139         3.821         0.047         0.003         0.021
  HS02004802HS02004478        60.637       102.200         4.331         0.518         2.651
  HS02004478WS02006287       121.861       211.031         6.563         0.746         3.897
  HS02004817HS02004807        56.481        93.826         4.376         0.530         2.695
  HS02004807HS02004802        61.264       103.199         4.392         0.526         2.689
  YS02001759YS02001757       125.110       210.844         2.842         0.203         1.421
  YS02001762YS02001759        66.273       112.568         1.677         0.126         0.859
  YS02001765YS02001762        65.771       111.629         1.690         0.128         0.870
  YS02001770YS02001767        63.442       107.830         1.396         0.089         0.682
  YS02001774YS02001770         3.960         6.710         0.096         0.007         0.048
  YS02001779YS02001774         2.740         4.546         0.130         0.014         0.076
  YS02001649YS02001757       180.440       296.227         3.976         0.286         1.926
  YS02001767YS02001765        65.827       111.663         1.706         0.130         0.879
  YS02006561YS02001783       263.464       440.887         7.239         0.621         3.835
  YS02001783YS02001784       263.398       440.793         7.236         0.621         3.833
  YS02001784YS02001785       270.786       452.636         7.949         0.710         4.280
  YS02001788YS02001790       271.825       454.329         8.055         0.723         4.346
  YS02001790YS02001791       273.083       456.377         8.180         0.739         4.424
  YS02001791YS02001793       273.082       456.377         8.177         0.739         4.422
  YS02001910YS02001907        92.094       151.488         3.594         0.348         2.024
  YS02001786YS02001788       271.033       453.048         7.978         0.714         4.297
  YS02001915YS02001910        91.995       151.282         3.549         0.341         1.994
  YS02001918YS02001915        48.510        76.914         2.567         0.288         1.524
  YS02001923YS02001920        28.494        44.893         0.624         0.044         0.310
  YS02001926YS02001923        28.125        44.298         0.586         0.040         0.285
  YS02001929YS02001926        27.850        43.848         0.554         0.036         0.265
  YS02001920YS02001918        48.431        76.799         2.543         0.284         1.509
  YS02001629YS02163301        31.769        52.045         0.714         0.045         0.330
  YS02001619YS02001622        35.106        57.211         0.792         0.049         0.365
  YS02001622YS02001625        34.306        56.043         0.772         0.048         0.355
  YS02001625YS02001629        33.230        54.452         0.746         0.046         0.344
  YS02163301YS02001633        31.817        52.151         0.714         0.045         0.331
  YS02163601YS02164001        89.953       146.225         1.984         0.142         0.961
  YS02164001YS02001641        89.522       145.538         1.962         0.139         0.948
  YS02001641YS02001644        90.093       146.473         1.965         0.139         0.948
  YS02001647YS02001649       148.203       241.645         3.212         0.229         1.559
  YS02006553YS02006556       191.580       319.547         5.599         0.502         3.022
  YS02006556YS02006558       191.530       319.444         5.569         0.498         3.002
  YSB6556YSB1171               7.732        14.083         0.217         0.021         0.119
  YS02001907YS02006553       191.534       319.491         5.593         0.501         3.018
  YS02006558YS02006561       263.476       440.896         7.238         0.621         3.835
  YS02001633YS02163601        90.585       147.157         1.967         0.138         0.946
  YS02001644YS02001647       150.026       244.341         3.229         0.230         1.565
  YS02001745YS02001748        57.187        95.010         1.887         0.165         1.026
  YS02001748YS02001751        56.238        93.375         1.980         0.181         1.092
  YS02001751YS02001754        55.591        92.369         1.984         0.183         1.098
  YS02001754YS02001757        56.486        93.796         2.152         0.205         1.206
  YS02001882YS02001884         0.643         1.021         0.018         0.002         0.010
  YS02001884YS02001887         2.417         3.984         0.061         0.005         0.032
  YS02001890YS02001895       100.603       169.683         2.031         0.156         1.011
  YS02001895YS02001898       100.468       169.490         2.025         0.156         1.008
  YS02001898YS02001901       100.352       169.326         2.022         0.155         1.006
  YS02001901YS02001904       100.382       169.407         2.040         0.158         1.018
  YS02001904YS02001907       101.057       170.532         2.125         0.169         1.072
  YS02001887YS02001890       101.443       170.980         2.094         0.164         1.050
  YS02001652YS02001649        41.303        68.720         0.967         0.071         0.459
  YS02001655YS02001652        42.192        70.110         0.992         0.073         0.470
  YS02001658YS02001655        41.838        69.474         0.904         0.061         0.413
  YS02001661YS02001658        43.754        72.517         0.947         0.064         0.431
  YS02001664YS02001661        47.497        78.309         1.034         0.069         0.471
  YSB1154YSB6556               7.244        13.307         0.156         0.013         0.081
  YSB1174YSB1171               5.279         9.743         0.146         0.014         0.080
  YSB1171HS02004479           14.765        26.649         0.531         0.056         0.303
  HS02004881HS02006253        14.141        26.153         0.383         0.032         0.199
  YS02001793JiankangQianchi       274.011       457.874         8.221         0.743         4.448
  YS02001757CaochengTiaoxuchi       319.732       534.358         7.686         0.589         3.874
  WSF200WS02003060           262.583       449.510        10.784         1.128         6.171
  1                         1812.763      2935.920       155.708        19.167        96.518
  CC-Pump-1                   54.338        91.449         1.285         0.098         0.646
  CC-Pump-2                    7.638        12.818         0.183         0.014         0.092
  JK-Pump-1                   51.338        85.880         1.546         0.140         0.837
  JK-Pump-2                  116.790       195.370         3.517         0.319         1.905
  XR-Pump-1                  370.529       594.578        34.467         4.287        21.477
  XR-Pump-2                  331.859       532.477        30.902         3.844        19.258
  XR-Pump-3                  331.859       532.477        30.902         3.844        19.258
  XR-Pump-4                  331.859       532.477        30.902         3.844        19.258
  

  Analysis begun on:  Sun Jul 11 09:57:14 2021
  Analysis ended on:  Sun Jul 11 09:57:15 2021
  Total elapsed time: 00:00:01