
  EPA STORM WATER MANAGEMENT MODEL - VERSION 5.1 (Build 5.3.0.dev0)
  --------------------------------------------------------------

  WARNING 04: minimum elevation drop used for Conduit WS02004404WS02004405
  WARNING 03: negative offset ignored for Link YS02001904YS02001907
  
  *********************************************************
  NOTE: The summary statistics displayed in this report are
  based on results found at every computational time step,  
  not just on results from each reporting time step.
  *********************************************************
  
  ****************
  Analysis Options
  ****************
  Flow Units ............... LPS
  Process Models:
    Rainfall/Runoff ........ YES
    RDII ................... NO
    Snowmelt ............... NO
    Groundwater ............ NO
    Flow Routing ........... YES
    Ponding Allowed ........ NO
    Water Quality .......... YES
  Infiltration Method ...... HORTON
  Flow Routing Method ...... DYNWAVE
  Surcharge Method ......... EXTRAN
  Starting Date ............ 08/28/2015 08:00:00
  Ending Date .............. 08/28/2015 15:50:00
  Antecedent Dry Days ...... 8.0
  Report Time Step ......... 00:01:00
  Wet Time Step ............ 00:01:00
  Dry Time Step ............ 00:01:00
  Routing Time Step ........ 5.00 sec
  Variable Time Step ....... YES
  Maximum Trials ........... 8
  Number of Threads ........ 4
  Head Tolerance ........... 0.001500 m
  
  
  **************************        Volume         Depth
  Runoff Quantity Continuity     hectare-m            mm
  **************************     ---------       -------
  Total Precipitation ......         2.730         5.977
  Evaporation Loss .........         0.000         0.000
  Infiltration Loss ........         0.582         1.274
  Surface Runoff ...........         1.597         3.496
  Final Storage ............         0.552         1.208
  Continuity Error (%) .....        -0.022
  
  
  **************************           COD            SS            TN            TP         NH4-N
  Runoff Quality Continuity             kg            kg            kg            kg            kg
  **************************    ----------    ----------    ----------    ----------    ----------
  Initial Buildup ..........     41378.656     70582.865      1804.177       168.684      1032.807
  Surface Buildup ..........        15.053        20.057         2.937         0.271         1.736
  Wet Deposition ...........         0.000         0.000         0.000         0.000         0.000
  Sweeping Removal .........         0.000         0.000         0.000         0.000         0.000
  Infiltration Loss ........        29.483        52.100         0.580         0.039         0.273
  BMP Removal ..............         0.000         0.000         0.000         0.000         0.000
  Surface Runoff ...........       975.666      1672.310        19.687         1.280         9.283
  Remaining Buildup ........     40388.244     68877.975      1786.839       167.635      1024.985
  Continuity Error (%) .....         0.001         0.001         0.000         0.000         0.000
  
  
  **************************        Volume        Volume
  Flow Routing Continuity        hectare-m      10^6 ltr
  **************************     ---------     ---------
  Dry Weather Inflow .......         0.616         6.165
  Wet Weather Inflow .......         1.596        15.963
  Groundwater Inflow .......         0.000         0.000
  RDII Inflow ..............         0.000         0.000
  External Inflow ..........         0.102         1.024
  External Outflow .........         1.223        12.228
  Flooding Loss ............         0.538         5.379
  Evaporation Loss .........         0.000         0.000
  Exfiltration Loss ........         0.000         0.000
  Initial Stored Volume ....         0.076         0.761
  Final Stored Volume ......         0.631         6.310
  Continuity Error (%) .....        -0.021
  
  
  **************************           COD            SS            TN            TP         NH4-N
  Quality Routing Continuity            kg            kg            kg            kg            kg
  **************************    ----------    ----------    ----------    ----------    ----------
  Dry Weather Inflow .......      1541.201      2465.922       147.955        18.494        92.472
  Wet Weather Inflow .......       975.464      1672.009        19.683         1.280         9.280
  Groundwater Inflow .......         0.000         0.000         0.000         0.000         0.000
  RDII Inflow ..............         0.000         0.000         0.000         0.000         0.000
  External Inflow ..........       183.418       293.469        17.608         2.201        11.005
  External Outflow .........      1745.552      2852.836       140.151        17.092        86.468
  Flooding Loss ............       383.061       631.203        15.972         1.657         9.133
  Exfiltration Loss ........         0.000         0.000         0.000         0.000         0.000
  Mass Reacted .............         0.000         0.000         0.000         0.000         0.000
  Initial Stored Mass ......         0.000         0.000         0.000         0.000         0.000
  Final Stored Mass ........       566.626       939.813        29.345         3.268        17.330
  Continuity Error (%) .....         0.179         0.170        -0.120        -0.188        -0.155
  
  
  *************************
  Highest Continuity Errors
  *************************
  Node HS02004842 (24.15%)
  Node YS02001774 (21.61%)
  Node YS02001884 (18.81%)
  Node YSB1171 (5.48%)
  Node HS02004817 (4.24%)
  
  
  ***************************
  Time-Step Critical Elements
  ***************************
  Link WS02006238WS02006235 (44.07%)
  Link WS02006280WS02006229 (21.49%)
  Link WS02003066WSF200 (13.17%)
  Link YS02001791YS02001793 (3.94%)
  Link WS02006229WS02006228 (1.36%)
  
  
  ********************************
  Highest Flow Instability Indexes
  ********************************
  Link WS02006113WS02006111 (59)
  Link YS02006558YS02006561 (23)
  Link YS02001619YS02001622 (22)
  Link YS02001629YS02163301 (21)
  Link YS02163301YS02001633 (21)
  
  
  *************************
  Routing Time Step Summary
  *************************
  Minimum Time Step           :     0.50 sec
  Average Time Step           :     3.14 sec
  Maximum Time Step           :     5.00 sec
  Percent in Steady State     :     0.00
  Average Iterations per Step :     3.68
  Percent Not Converging      :    15.01
  
  
  ***************************
  Subcatchment Runoff Summary
  ***************************
  
  ------------------------------------------------------------------------------------------------------------------------------
                            Total      Total      Total      Total     Imperv       Perv      Total       Total     Peak  Runoff
                           Precip      Runon       Evap      Infil     Runoff     Runoff     Runoff      Runoff   Runoff   Coeff
  Subcatchment                 mm         mm         mm         mm         mm         mm         mm    10^6 ltr      LPS
  ------------------------------------------------------------------------------------------------------------------------------
  sub0                       5.98       0.00       0.00       0.41       5.51       0.00       5.52        0.00     1.74   0.923
  sub1                       5.98       0.00       0.00       0.66       5.23       0.00       5.23        0.03    10.13   0.876
  sub2                       5.98       0.00       0.00       2.21       3.69       0.00       3.69        0.03     9.10   0.617
  sub3                       5.98       0.00       0.00       2.21       3.65       0.00       3.65        0.08    19.00   0.611
  sub4                       5.98       0.00       0.00       0.66       5.09       0.00       5.09        0.11    21.50   0.852
  sub5                       5.98       0.00       0.00       0.42       5.47       0.00       5.47        0.06    18.02   0.915
  sub7                       5.98       0.00       0.00       0.54       5.38       0.00       5.38        0.02     6.11   0.900
  sub8                       5.98       0.00       0.00       0.54       5.37       0.00       5.37        0.03    10.97   0.899
  sub9                       5.98       0.00       0.00       0.54       5.37       0.00       5.37        0.03     8.15   0.898
  sub10                      5.98       0.00       0.00       0.48       5.41       0.00       5.42        0.06    17.88   0.906
  sub11                      5.98       0.00       0.00       0.48       5.43       0.00       5.43        0.06    20.54   0.909
  sub12                      5.98       0.00       0.00       0.77       5.15       0.00       5.16        0.05    16.60   0.863
  sub14                      5.98       0.00       0.00       0.54       5.37       0.00       5.37        0.05    15.98   0.898
  sub15                      5.98       0.00       0.00       1.79       4.12       0.00       4.13        0.07    21.79   0.690
  sub16                      5.98       0.00       0.00       1.97       3.97       0.00       3.97        0.04    14.80   0.664
  sub17                      5.98       0.00       0.00       1.91       4.02       0.00       4.03        0.03    12.06   0.673
  sub22                      5.98       0.00       0.00       2.57       3.37       0.00       3.37        0.21    70.04   0.564
  sub23                      5.98       0.00       0.00       2.21       3.72       0.00       3.72        0.18    59.34   0.623
  sub60                      5.98       0.00       0.00       0.72       3.84       0.00       3.84        1.16   110.29   0.643
  sub61                      5.98       0.00       0.00       1.02       4.04       0.00       4.04        1.25   138.51   0.676
  sub62                      5.98       0.00       0.00       0.48       4.35       0.00       4.35        1.34   141.52   0.729
  sub63                      5.98       0.00       0.00       1.73       3.58       0.00       3.58        1.08   129.31   0.599
  sub64                      5.98       0.00       0.00       0.90       3.68       0.00       3.68        1.12   104.76   0.615
  sub65                      5.98       0.00       0.00       0.78       3.73       0.00       3.73        1.15   106.30   0.624
  sub66                      5.98       0.00       0.00       1.73       3.19       0.00       3.19        0.98    96.04   0.534
  sub67                      5.98       0.00       0.00       0.48       4.72       0.00       4.72        1.46   181.77   0.790
  sub68                      5.98       0.00       0.00       0.84       4.28       0.00       4.28        1.32   153.17   0.717
  sub69                      5.98       0.00       0.00       0.90       4.56       0.00       4.56        1.07   152.07   0.763
  sub70                      5.98       4.65       0.00       3.60       5.78       0.01       5.79        1.32   126.54   0.544
  sub71                      5.98       0.00       0.00       0.48       4.19       0.00       4.19        0.99    98.74   0.701
  sub72                      5.98       0.00       0.00       0.42       3.07       0.00       3.07        0.63    47.74   0.513
  1                          5.98       5.63       0.00       1.32       6.03       1.02       7.05        1.66   122.81   0.607
  2                          5.98       0.00       0.00       2.91       1.37       0.35       1.72        0.69    93.61   0.288
  
  
  ****************************
  Subcatchment Washoff Summary
  ****************************
  
  ------------------------------------------------------------------------------------------
                                 COD            SS            TN            TP         NH4-N
  Subcatchment                    kg            kg            kg            kg            kg
  ------------------------------------------------------------------------------------------
  sub0                         0.924         1.733         0.015         0.001         0.007
  sub1                         3.734         7.083         0.070         0.005         0.033
  sub2                         2.130         3.885         0.047         0.003         0.021
  sub3                         5.145         9.252         0.112         0.007         0.051
  sub4                         8.160        15.348         0.167         0.010         0.080
  sub5                         8.613        16.137         0.151         0.011         0.073
  sub7                         1.983         3.843         0.037         0.002         0.018
  sub8                         2.984         5.893         0.060         0.003         0.029
  sub9                         2.530         4.927         0.049         0.003         0.024
  sub10                        7.149        13.578         0.130         0.009         0.063
  sub11                        7.107        13.698         0.132         0.009         0.064
  sub12                        5.957        11.301         0.106         0.008         0.051
  sub14                        5.370        10.362         0.102         0.007         0.049
  sub15                        6.287        11.552         0.123         0.009         0.057
  sub16                        4.006         7.374         0.077         0.006         0.036
  sub17                        3.670         6.692         0.068         0.005         0.032
  sub22                       18.528        33.320         0.359         0.027         0.166
  sub23                       11.384        21.254         0.252         0.016         0.114
  sub60                       62.760       106.747         1.330         0.077         0.635
  sub61                       79.604       135.143         1.539         0.100         0.738
  sub62                       83.886       144.994         1.723         0.103         0.823
  sub63                       59.654       100.026         1.279         0.086         0.583
  sub64                       74.905       122.597         1.431         0.100         0.678
  sub65                       76.791       126.232         1.480         0.101         0.702
  sub66                       45.097        74.652         1.002         0.062         0.462
  sub67                      126.303       217.099         2.292         0.163         1.103
  sub68                       89.517       153.899         1.789         0.115         0.849
  sub69                       83.985       146.941         1.622         0.109         0.770
  sub70                      127.291       221.969         2.666         0.177         1.231
  sub71                       55.472        96.608         1.219         0.066         0.581
  sub72                       36.753        58.979         0.722         0.047         0.346
  1                           68.937       121.163         1.493         0.100         0.679
  2                           10.325        16.938         0.333         0.020         0.139
  ------------------------------------------------------------------------------------------
  System                    1186.942      2041.220        23.975         1.567        11.283
  
  
  ******************
  Node Depth Summary
  ******************
  
  ---------------------------------------------------------------------------------
                                 Average  Maximum  Maximum  Time of Max    Reported
                                   Depth    Depth      HGL   Occurrence   Max Depth
  Node                 Type       Meters   Meters   Meters  days hr:min      Meters
  ---------------------------------------------------------------------------------
  WS02001211           JUNCTION     0.67     0.72     5.56     0  02:37        0.72
  WS02001212           JUNCTION     0.39     0.44     5.51     0  02:36        0.44
  WS02001213           JUNCTION     0.60     0.70     5.46     0  02:35        0.70
  WS02003069           JUNCTION     0.39     0.54     5.12     0  02:34        0.54
  WS02003072           JUNCTION     0.45     0.60     4.97     0  02:34        0.60
  WS02003073           JUNCTION     0.27     0.37     4.43     0  02:35        0.37
  WS02003060           JUNCTION     0.35     0.48     5.41     0  02:33        0.48
  WS02003066           JUNCTION     0.17     0.29     5.85     0  02:31        0.29
  WS02003059           JUNCTION     0.66     0.76     5.44     0  02:34        0.76
  WS02003067           JUNCTION     0.42     0.69     6.01     0  02:31        0.69
  WS02004401           JUNCTION     0.51     0.84     6.84     0  02:26        0.83
  WS02004402           JUNCTION     0.55     0.86     6.82     0  02:26        0.86
  WS02004403           JUNCTION     0.57     0.88     6.81     0  02:26        0.88
  WS02004404           JUNCTION     0.64     0.95     6.80     0  02:26        0.95
  WS02004406           JUNCTION     0.65     0.95     6.78     0  02:27        0.95
  WS02004409           JUNCTION     0.34     0.65     6.42     0  02:31        0.65
  WS02004410           JUNCTION     0.36     0.67     6.39     0  02:30        0.67
  WS02004411           JUNCTION     0.37     0.68     6.36     0  02:31        0.68
  WS02004412           JUNCTION     0.39     0.69     6.33     0  02:31        0.69
  WS02004413           JUNCTION     0.52     0.85     6.32     0  02:31        0.85
  WS02004405           JUNCTION     0.64     0.94     6.79     0  02:26        0.94
  WS02006109           JUNCTION     0.61     0.95     7.57     0  02:22        0.95
  WS02006110           JUNCTION     0.62     0.91     7.49     0  02:23        0.91
  WS02006111           JUNCTION     0.16     0.28     6.99     0  02:25        0.28
  WS02006112           JUNCTION     0.67     1.03     6.91     0  02:25        1.03
  WS02006113           JUNCTION     0.25     0.44     7.34     0  02:24        0.44
  WS02006115           JUNCTION     0.41     0.73     6.87     0  02:27        0.73
  WS02006116           JUNCTION     0.49     0.81     6.85     0  02:27        0.81
  WS02006230           JUNCTION     0.53     0.96     7.71     0  02:24        0.96
  WS02006231           JUNCTION     0.31     0.62     7.74     0  02:25        0.62
  WS02006232           JUNCTION     0.41     0.74     7.77     0  02:25        0.73
  WS02006234           JUNCTION     0.32     0.65     7.81     0  02:25        0.65
  WS02006235           JUNCTION     0.35     0.67     7.83     0  02:27        0.67
  WS02006238           JUNCTION     0.36     0.69     7.83     0  02:27        0.69
  WS02006240           JUNCTION     0.25     0.54     7.83     0  02:27        0.54
  WS02006242           JUNCTION     0.28     0.57     7.84     0  02:27        0.57
  WS02006243           JUNCTION     0.17     0.42     7.84     0  02:27        0.41
  WS02006245           JUNCTION     0.14     0.35     7.84     0  02:27        0.35
  WS02006247           JUNCTION     0.13     0.34     7.84     0  02:28        0.34
  WS02006248           JUNCTION     0.08     0.26     7.84     0  02:28        0.25
  WS02006249           JUNCTION     0.09     0.25     7.85     0  02:27        0.25
  WS02006239           JUNCTION     0.31     0.62     7.83     0  02:28        0.62
  WS02006251           JUNCTION     0.07     0.20     7.87     0  02:27        0.20
  WS02006252           JUNCTION     0.00     0.00     8.24     0  00:00        0.00
  WS02006253           JUNCTION     0.10     0.26     7.90     0  02:12        0.26
  WS02006256           JUNCTION     1.41     2.35     9.28     0  02:11        2.35
  WS02004138           JUNCTION     0.16     0.17     7.42     0  04:39        0.17
  WS02004139           JUNCTION     0.62     0.66     5.57     0  02:37        0.66
  WS02004407           JUNCTION     0.16     0.29     6.60     0  02:27        0.29
  WS02006228           JUNCTION     0.59     0.98     7.63     0  02:22        0.98
  WS02006229           JUNCTION     0.56     0.97     7.67     0  02:22        0.97
  WS02006280           JUNCTION     0.06     0.17     8.44     0  02:13        0.17
  WS02006284           JUNCTION     0.36     0.51     8.91     0  02:13        0.51
  WS02006287           JUNCTION     0.09     0.24     9.20     0  02:12        0.24
  WSF200               JUNCTION     0.15     0.30     5.53     0  02:31        0.30
  HS02004901           JUNCTION     0.12     0.26    10.08     0  02:10        0.26
  HS02004881           JUNCTION     0.01     0.03     9.06     0  02:12        0.03
  HS02004876           JUNCTION     0.04     0.11     9.14     0  02:08        0.11
  HS02004870           JUNCTION     0.01     0.05     9.34     0  02:13        0.05
  HS02004862           JUNCTION     0.02     0.06     9.44     0  02:13        0.06
  HS02004856           JUNCTION     0.07     0.11     9.54     0  02:13        0.11
  HS02004852           JUNCTION     0.01     0.03     9.55     0  02:14        0.03
  HS02004848           JUNCTION     0.01     0.03     9.64     0  02:12        0.03
  HS02004842           JUNCTION     0.33     0.37     9.64     0  02:12        0.37
  HS02004837           JUNCTION     0.03     0.05     9.63     0  02:12        0.05
  HS02004830           JUNCTION     0.04     0.07     9.54     0  02:13        0.07
  HS02004824           JUNCTION     0.02     0.05     9.45     0  02:15        0.05
  HS02004817           JUNCTION     0.42     0.55     9.40     0  02:13        0.55
  HS02004807           JUNCTION     0.12     0.23     9.40     0  02:13        0.23
  HS02004802           JUNCTION     0.15     0.26     9.39     0  02:13        0.26
  HS02004799           JUNCTION     0.12     0.29     9.51     0  02:11        0.29
  HS02004792           JUNCTION     0.03     0.12     9.64     0  02:10        0.12
  HS02004788           JUNCTION     0.02     0.09     9.99     0  02:11        0.09
  HS02004785           JUNCTION     0.04     0.15    10.05     0  02:11        0.15
  HS02004777           JUNCTION     0.14     0.28    10.07     0  02:10        0.28
  HS02004770           JUNCTION     0.11     0.25    10.08     0  02:10        0.25
  HS02004480           JUNCTION     0.08     0.23     9.47     0  02:11        0.23
  HS02004479           JUNCTION     0.11     0.27     9.47     0  02:11        0.27
  HS02004478           JUNCTION     0.06     0.15     9.38     0  02:12        0.15
  YS02001745           JUNCTION     0.51     0.86     8.38     0  03:57        0.86
  YS02001748           JUNCTION     0.84     1.30     8.38     0  03:57        1.30
  YS02001751           JUNCTION     0.99     1.50     8.38     0  03:56        1.50
  YS02001754           JUNCTION     1.21     1.78     8.39     0  04:00        1.77
  YS02001762           JUNCTION     1.39     1.99     8.39     0  03:57        1.98
  YS02001765           JUNCTION     1.35     1.93     8.38     0  03:52        1.92
  YS02001767           JUNCTION     1.32     1.90     8.38     0  03:53        1.89
  YS02001770           JUNCTION     1.32     1.88     8.38     0  03:59        1.88
  YS02001774           JUNCTION     1.38     1.96     8.38     0  03:53        1.95
  YS02001779           JUNCTION     1.15     1.68     8.37     0  03:45        1.68
  YS02001882           JUNCTION     0.31     0.56     7.28     0  02:43        0.56
  YS02001884           JUNCTION     0.40     0.66     7.28     0  02:43        0.66
  YS02001759           JUNCTION     1.43     2.02     8.39     0  03:59        2.01
  YS02001887           JUNCTION     0.47     0.74     7.28     0  02:43        0.74
  YS02001890           JUNCTION     0.50     0.77     7.28     0  02:43        0.77
  YS02001898           JUNCTION     0.28     0.52     7.26     0  02:43        0.52
  YS02001901           JUNCTION     0.39     0.65     7.26     0  02:42        0.65
  YS02001904           JUNCTION     0.37     0.63     7.26     0  02:43        0.63
  YS02001907           JUNCTION     0.69     0.97     7.26     0  02:43        0.97
  YS02001910           JUNCTION     0.48     0.75     7.26     0  02:42        0.75
  YS02001915           JUNCTION     0.30     0.54     7.26     0  02:42        0.54
  YS02001918           JUNCTION     0.09     0.19     7.26     0  02:43        0.19
  YS02001619           JUNCTION     0.96     1.44     8.37     0  03:44        1.44
  YS02001629           JUNCTION     1.27     1.82     8.37     0  03:47        1.81
  YS02001641           JUNCTION     1.37     1.93     8.36     0  03:51        1.92
  YS02001644           JUNCTION     1.37     1.92     8.35     0  03:43        1.92
  YS02001652           JUNCTION     1.23     1.79     8.38     0  03:59        1.78
  YS02001655           JUNCTION     1.02     1.56     8.41     0  02:59        1.53
  YS02001920           JUNCTION     0.19     0.26     7.27     0  02:44        0.26
  YS02001923           JUNCTION     0.07     0.10     7.36     0  03:01        0.10
  YS02001926           JUNCTION     0.15     0.20     7.65     0  03:01        0.20
  YS02001929           JUNCTION     0.07     0.10     7.80     0  03:01        0.10
  YS02001658           JUNCTION     0.79     1.25     8.39     0  03:57        1.24
  YS02001661           JUNCTION     0.61     0.98     8.39     0  03:53        0.98
  YS02001664           JUNCTION     0.27     0.47     8.39     0  04:00        0.47
  YS02001622           JUNCTION     0.98     1.47     8.37     0  03:49        1.46
  YS02001633           JUNCTION     1.35     1.92     8.37     0  03:53        1.91
  YS02001649           JUNCTION     1.40     1.99     8.38     0  03:57        1.99
  YS02001757           JUNCTION     1.52     2.12     8.38     0  03:59        2.12
  YS02001895           JUNCTION     0.28     0.52     7.27     0  02:43        0.52
  YS02001625           JUNCTION     1.24     1.77     8.37     0  03:44        1.77
  YS02163301           JUNCTION     1.30     1.85     8.37     0  03:48        1.85
  YS02163601           JUNCTION     1.41     1.97     8.37     0  03:58        1.96
  YS02164001           JUNCTION     1.35     1.90     8.36     0  03:54        1.90
  YS02001647           JUNCTION     1.21     1.76     8.37     0  04:40        1.75
  YSB1154              JUNCTION     0.24     0.42     9.48     0  02:11        0.42
  YSB6556              JUNCTION     0.14     0.31     9.47     0  02:11        0.31
  YSB1174              JUNCTION     0.20     0.37     9.47     0  02:11        0.37
  YSB1171              JUNCTION     0.39     0.57     9.47     0  02:11        0.57
  YS02006553           JUNCTION     0.69     0.97     7.25     0  02:41        0.97
  YS02006561           JUNCTION     0.15     0.28     6.94     0  02:44        0.28
  YS02006556           JUNCTION     0.66     0.94     7.25     0  02:41        0.94
  YS02006558           JUNCTION     0.71     0.98     7.25     0  02:41        0.98
  YS02001783           JUNCTION     0.26     0.50     6.64     0  02:45        0.50
  YS02001784           JUNCTION     0.29     0.52     6.59     0  02:45        0.52
  YS02001786           JUNCTION     0.25     0.44     6.47     0  02:45        0.44
  YS02001788           JUNCTION     0.18     0.34     6.32     0  02:45        0.34
  YS02001790           JUNCTION     0.22     0.41     6.06     0  02:46        0.41
  YS02001791           JUNCTION     0.14     0.25     5.72     0  02:46        0.25
  YS02001793           JUNCTION     0.28     1.05     5.88     0  02:29        0.92
  WSC                  OUTFALL      0.27     0.37     1.04     0  02:36        0.37
  JK-storage           STORAGE      4.01     4.88     5.68     0  02:49        4.87
  CC-storage           STORAGE      0.84     1.38     8.38     0  03:56        1.38
  XR-storage           STORAGE      7.30     7.72     5.72     0  02:25        7.72
  
  
  *******************
  Node Inflow Summary
  *******************
  
  -------------------------------------------------------------------------------------------------
                                  Maximum  Maximum                  Lateral       Total        Flow
                                  Lateral    Total  Time of Max      Inflow      Inflow     Balance
                                   Inflow   Inflow   Occurrence      Volume      Volume       Error
  Node                 Type           LPS      LPS  days hr:min    10^6 ltr    10^6 ltr     Percent
  -------------------------------------------------------------------------------------------------
  WS02001211           JUNCTION      7.35   293.98     0  01:58       0.207        7.34       0.436
  WS02001212           JUNCTION      0.00   294.64     0  04:35           0        7.31       0.215
  WS02001213           JUNCTION      0.00   295.72     0  04:34           0        7.29       0.251
  WS02003069           JUNCTION      0.32   821.05     0  02:34     0.00902        12.2       0.145
  WS02003072           JUNCTION      0.00   821.04     0  02:34           0        12.2       0.196
  WS02003073           JUNCTION      1.82   822.88     0  02:35      0.0514        12.3       0.211
  WS02003060           JUNCTION     16.53   820.74     0  02:33       0.466        12.3       0.138
  WS02003066           JUNCTION      0.00   515.32     0  02:31           0        4.55       0.049
  WS02003059           JUNCTION      0.00   297.85     0  04:34           0        7.28       0.447
  WS02003067           JUNCTION      0.00   515.31     0  02:31           0        4.56       0.119
  WS02004401           JUNCTION      0.00   520.52     0  02:26           0        4.69       0.258
  WS02004402           JUNCTION      0.00   519.46     0  02:26           0        4.67       0.259
  WS02004403           JUNCTION      0.00   519.14     0  02:26           0        4.66       0.248
  WS02004404           JUNCTION      0.16   519.09     0  02:26     0.00457        4.65       0.234
  WS02004406           JUNCTION      0.00   518.82     0  02:26           0        4.63       0.495
  WS02004409           JUNCTION      0.00   518.47     0  02:27           0        4.61       0.118
  WS02004410           JUNCTION      0.00   516.81     0  02:29           0         4.6       0.164
  WS02004411           JUNCTION      0.00   516.00     0  02:29           0        4.59       0.189
  WS02004412           JUNCTION      0.00   515.63     0  02:30           0        4.59       0.234
  WS02004413           JUNCTION      0.00   515.46     0  02:31           0        4.57       0.391
  WS02004405           JUNCTION      0.04   518.98     0  02:26     0.00107        4.64       0.275
  WS02006109           JUNCTION      1.23   514.62     0  02:23      0.0347        4.71       0.219
  WS02006110           JUNCTION      0.00   514.68     0  02:22           0         4.7       0.222
  WS02006111           JUNCTION      0.00   531.61     0  02:26           0        4.69       0.018
  WS02006112           JUNCTION     12.06   525.25     0  02:25      0.0345        4.72       0.345
  WS02006113           JUNCTION      0.00   514.77     0  02:23           0        4.69       0.055
  WS02006115           JUNCTION      0.00   525.03     0  02:25           0         4.7       0.196
  WS02006116           JUNCTION      0.00   521.36     0  02:25           0        4.69       0.191
  WS02006230           JUNCTION     10.28   304.15     0  02:37        0.29        3.59       0.253
  WS02006231           JUNCTION      0.00   292.45     0  02:36           0         3.3       0.040
  WS02006232           JUNCTION      0.00   292.12     0  02:38           0         3.3       0.390
  WS02006234           JUNCTION      0.00   291.12     0  02:37           0         3.3       0.036
  WS02006235           JUNCTION      0.00   331.35     0  02:12           0        3.65       0.268
  WS02006238           JUNCTION      0.00   239.01     0  02:11           0       0.789       0.565
  WS02006240           JUNCTION      0.00   126.13     0  02:12           0       0.537       1.058
  WS02006242           JUNCTION      0.00   107.66     0  02:13           0       0.404       0.945
  WS02006243           JUNCTION      0.00    61.61     0  02:14           0       0.299       1.320
  WS02006245           JUNCTION      0.00    56.95     0  02:14           0       0.246       1.444
  WS02006247           JUNCTION      0.00    56.81     0  02:15           0       0.216       0.173
  WS02006248           JUNCTION      0.00    56.81     0  02:13           0       0.202      -0.038
  WS02006249           JUNCTION      0.00    56.87     0  02:13           0       0.199       0.391
  WS02006239           JUNCTION      0.00   138.98     0  02:12           0       0.672       0.807
  WS02006251           JUNCTION      0.08    56.96     0  02:12     0.00217       0.199       0.024
  WS02006252           JUNCTION      0.00     0.00     0  00:00           0           0       0.000 ltr
  WS02006253           JUNCTION      1.74    56.92     0  02:12     0.00447       0.197       0.074
  WS02006256           JUNCTION      0.00   983.00     0  02:21           0        4.37      -0.225
  WS02004138           JUNCTION      0.00   285.00     0  01:56           0        7.15       0.046
  WS02004139           JUNCTION      0.32   285.32     0  07:20     0.00905        7.16       0.423
  WS02004407           JUNCTION      0.00   518.69     0  02:27           0        4.61       0.051
  WS02006228           JUNCTION      0.00   513.40     0  02:23           0        4.68       0.184
  WS02006229           JUNCTION      0.00   514.11     0  02:22           0         4.7       0.236
  WS02006280           JUNCTION      0.00   282.21     0  02:13           0        1.13       0.006
  WS02006284           JUNCTION      0.10   282.18     0  02:12      0.0027        1.13       0.105
  WS02006287           JUNCTION      0.00   282.05     0  02:12           0        1.13       0.064
  WSF200               JUNCTION      0.00   515.34     0  02:31           0        4.55       0.037
  HS02004901           JUNCTION     14.80    14.80     0  02:07      0.0415      0.0417       4.401
  HS02004881           JUNCTION      6.11    55.47     0  02:12      0.0181       0.192       0.032
  HS02004876           JUNCTION     10.13    49.57     0  02:12      0.0348       0.175       0.304
  HS02004870           JUNCTION     10.97    39.66     0  02:12      0.0343        0.14       0.076
  HS02004862           JUNCTION      9.30    29.34     0  02:13        0.04       0.106       0.160
  HS02004856           JUNCTION      8.15    20.12     0  02:12      0.0258      0.0672       2.188
  HS02004852           JUNCTION      0.00    12.42     0  02:12           0      0.0414       0.124
  HS02004848           JUNCTION     19.00    19.00     0  02:14      0.0822      0.0822       0.053
  HS02004842           JUNCTION      0.00     7.14     0  02:23           0      0.0538      31.842
  HS02004837           JUNCTION     24.23    30.36     0  02:11       0.239        0.28       0.282
  HS02004830           JUNCTION      0.15    30.49     0  02:12     0.00423        0.27       0.458
  HS02004824           JUNCTION     21.55    51.85     0  02:15       0.108       0.376       0.143
  HS02004817           JUNCTION      0.60    52.44     0  02:15      0.0169       0.393       4.431
  HS02004807           JUNCTION     20.54    71.44     0  02:14      0.0631       0.439       0.972
  HS02004802           JUNCTION      0.00    71.85     0  02:15           0       0.435       0.942
  HS02004799           JUNCTION     15.98   179.38     0  02:10      0.0511       0.603       0.395
  HS02004792           JUNCTION     70.32   163.64     0  02:10       0.221       0.552       0.074
  HS02004788           JUNCTION     23.46    95.13     0  02:10       0.118       0.332       0.116
  HS02004785           JUNCTION      0.15    72.00     0  02:10     0.00423       0.216       0.222
  HS02004777           JUNCTION      0.03    72.32     0  02:09    0.000846       0.216       2.450
  HS02004770           JUNCTION     59.34    73.24     0  02:08       0.178       0.218       1.444
  HS02004480           JUNCTION      0.00   211.78     0  02:11           0       0.706       0.107
  HS02004479           JUNCTION      0.00    33.07     0  02:12           0       0.116       0.632
  HS02004478           JUNCTION      0.00   282.04     0  02:12           0        1.13       0.051
  YS02001745           JUNCTION    110.30   116.40     0  02:52        1.16        1.16       0.997
  YS02001748           JUNCTION      0.04   302.23     0  02:49     0.00127        1.17       2.029
  YS02001751           JUNCTION      0.01   356.68     0  02:53     0.00031        1.15       1.913
  YS02001754           JUNCTION      0.26   177.48     0  02:57     0.00733        1.12       2.239
  YS02001762           JUNCTION      0.00   180.95     0  02:52           0        1.22       1.796
  YS02001765           JUNCTION      0.00   176.72     0  02:52           0        1.22       2.039
  YS02001767           JUNCTION      0.54   174.04     0  02:49      0.0151        1.24       2.961
  YS02001770           JUNCTION    141.67   174.58     0  02:49        1.34        1.36       2.408
  YS02001774           JUNCTION      0.00    76.68     0  04:03           0       0.118      27.561
  YS02001779           JUNCTION      0.01    75.80     0  04:03    0.000141      0.0766      25.101
  YS02001882           JUNCTION      0.00     4.88     0  02:04           0       0.007      35.048
  YS02001884           JUNCTION      0.00    13.92     0  02:04           0      0.0275      23.168
  YS02001759           JUNCTION    138.55   320.17     0  02:52        1.25        2.43       0.964
  YS02001887           JUNCTION    182.22   183.17     0  02:34        1.47        1.48       0.506
  YS02001890           JUNCTION      0.00   182.78     0  02:34           0        1.46       0.565
  YS02001898           JUNCTION      0.00   182.26     0  02:33           0        1.44       0.170
  YS02001901           JUNCTION      0.00   181.64     0  02:33           0        1.44       0.408
  YS02001904           JUNCTION      0.00   182.05     0  02:33           0        1.44       0.378
  YS02001907           JUNCTION      0.00   327.13     0  03:00           0        3.11       0.730
  YS02001910           JUNCTION      0.00   152.28     0  02:59           0        1.69       0.629
  YS02001915           JUNCTION     98.76   149.50     0  02:59        0.99        1.69       0.292
  YS02001918           JUNCTION      0.00    51.22     0  03:00           0       0.703       0.191
  YS02001619           JUNCTION     96.04    96.04     0  02:46       0.978       0.978       1.244
  YS02001629           JUNCTION      0.00   215.59     0  02:57           0         0.9       3.285
  YS02001641           JUNCTION      0.00   220.97     0  02:54           0        1.95       1.102
  YS02001644           JUNCTION    104.80   529.23     0  04:00        1.12        4.97       0.531
  YS02001652           JUNCTION      0.00   212.80     0  02:52           0        1.02       2.394
  YS02001655           JUNCTION      0.15   368.49     0  02:50     0.00434        1.05       2.006
  YS02001920           JUNCTION      2.87    50.64     0  03:01      0.0809       0.705       0.325
  YS02001923           JUNCTION      0.04    47.77     0  03:01     0.00106       0.624       0.058
  YS02001926           JUNCTION      0.05    47.78     0  03:01     0.00147       0.626       0.404
  YS02001929           JUNCTION     47.74    47.74     0  03:01       0.625       0.625       0.057
  YS02001658           JUNCTION      0.00   326.31     0  02:58           0        1.09       2.076
  YS02001661           JUNCTION      0.00   285.96     0  03:35           0        1.13       1.716
  YS02001664           JUNCTION    129.31   214.49     0  03:35        1.08         1.1       0.523
  YS02001622           JUNCTION      0.00   156.99     0  02:57           0       0.968       3.377
  YS02001633           JUNCTION    106.50   221.65     0  02:54        1.15        2.01       1.640
  YS02001649           JUNCTION      0.00   473.20     0  02:47           0        3.99       0.959
  YS02001757           JUNCTION      0.00   828.38     0  02:53           0        5.59       1.685
  YS02001895           JUNCTION      0.00   182.39     0  02:34           0        1.45       0.278
  YS02001625           JUNCTION      0.00   216.84     0  02:57           0       0.938       4.372
  YS02163301           JUNCTION      0.00   116.18     0  02:54           0       0.882       2.809
  YS02163601           JUNCTION      0.11   221.48     0  02:54      0.0031        1.97       1.560
  YS02164001           JUNCTION      0.00   221.33     0  02:54           0        1.95       1.075
  YS02001647           JUNCTION      0.00   342.21     0  04:00           0        3.41       0.840
  YSB1154              JUNCTION     18.02    18.02     0  02:10      0.0619      0.0632       2.341
  YSB6556              JUNCTION      0.00    17.94     0  02:12           0      0.0641       1.983
  YSB1174              JUNCTION     16.60    16.60     0  02:06      0.0451      0.0458       2.886
  YSB1171              JUNCTION      0.00    33.01     0  02:11           0       0.115       5.802
  YS02006553           JUNCTION      0.00   326.18     0  02:47           0         3.1       0.472
  YS02006561           JUNCTION      0.00   513.62     0  02:45           0        4.39       0.007
  YS02006556           JUNCTION      0.00   326.37     0  02:48           0        3.11       0.342
  YS02006558           JUNCTION    154.05   478.76     0  02:44        1.34        4.42       0.113
  YS02001783           JUNCTION      0.00   478.22     0  02:44           0        4.39       0.040
  YS02001784           JUNCTION      1.06   479.07     0  02:45      0.0299        4.42       0.064
  YS02001786           JUNCTION      0.06   479.11     0  02:45     0.00159        4.42       0.062
  YS02001788           JUNCTION      0.07   479.18     0  02:45       0.002        4.42       0.037
  YS02001790           JUNCTION      0.15   479.34     0  02:46     0.00437        4.42       0.044
  YS02001791           JUNCTION      0.00   479.32     0  02:46           0        4.42       0.021
  YS02001793           JUNCTION      0.00   662.76     0  02:34           0        4.46      -0.131
  WSC                  OUTFALL       0.00   822.91     0  02:36           0        12.2       0.000
  JK-storage           STORAGE       0.00   916.91     0  02:35           0        4.62       0.106
  CC-storage           STORAGE       0.00   831.36     0  02:53           0        3.94       1.677
  XR-storage           STORAGE     400.38   400.38     0  02:49        7.98        8.58      -0.002
  
  
  **********************
  Node Surcharge Summary
  **********************
  
  Surcharging occurs when water rises above the top of the highest conduit.
  ---------------------------------------------------------------------
                                               Max. Height   Min. Depth
                                   Hours       Above Crown    Below Rim
  Node                 Type      Surcharged         Meters       Meters
  ---------------------------------------------------------------------
  WS02006109           JUNCTION        0.75          0.131        1.689
  WS02006112           JUNCTION        0.27          0.030        1.650
  WS02006232           JUNCTION        0.31          0.036        1.444
  WS02006256           JUNCTION        5.80          2.050        0.000
  WS02006228           JUNCTION        0.73          0.153        2.047
  YS02001748           JUNCTION        4.38          0.224        0.966
  YS02001751           JUNCTION        4.75          0.504        0.696
  YS02001754           JUNCTION        5.15          0.727        0.423
  YS02001762           JUNCTION        5.50          0.985        0.165
  YS02001765           JUNCTION        5.47          0.933        0.167
  YS02001767           JUNCTION        5.45          0.895        0.135
  YS02001770           JUNCTION        5.43          0.852        0.068
  YS02001774           JUNCTION        5.48          0.959        0.091
  YS02001779           JUNCTION        5.04          0.680        0.000
  YS02001759           JUNCTION        5.52          1.021        0.189
  YS02001619           JUNCTION        4.70          0.439        0.171
  YS02001629           JUNCTION        4.71          0.438        0.032
  YS02001641           JUNCTION        5.48          0.928        0.172
  YS02001644           JUNCTION        5.48          0.920        0.000
  YS02001652           JUNCTION        5.27          0.757        0.373
  YS02001655           JUNCTION        4.80          0.563        0.637
  YS02001658           JUNCTION        4.40          0.250        1.050
  YS02001622           JUNCTION        4.73          0.470        0.150
  YS02001633           JUNCTION        5.46          0.896        0.164
  YS02001649           JUNCTION        5.50          0.991        0.059
  YS02001757           JUNCTION        5.58          1.122        0.088
  YS02001625           JUNCTION        5.37          0.765        0.015
  YS02163301           JUNCTION        5.44          0.851        0.179
  YS02163601           JUNCTION        5.50          0.968        0.112
  YS02164001           JUNCTION        5.47          0.903        0.197
  YS02001647           JUNCTION        5.31          0.760        0.140
  YS02001793           JUNCTION        0.01          0.046        2.554
  
  
  *********************
  Node Flooding Summary
  *********************
  
  Flooding refers to all water that overflows a node, whether it ponds or not.
  --------------------------------------------------------------------------
                                                             Total   Maximum
                                 Maximum   Time of Max       Flood    Ponded
                        Hours       Rate    Occurrence      Volume     Depth
  Node                 Flooded       LPS   days hr:min    10^6 ltr    Meters
  --------------------------------------------------------------------------
  WS02006256              3.47    744.75      0  02:26       1.241     0.000
  YS02001779              0.49     75.51      0  04:03       0.049     0.000
  YS02001644              4.10    528.94      0  04:01       3.459     0.000
  XR-storage              3.04    115.38      0  02:49       0.630     0.000
  
  
  **********************
  Storage Volume Summary
  **********************
  
  --------------------------------------------------------------------------------------------------
                         Average     Avg  Evap Exfil       Maximum     Max    Time of Max    Maximum
                          Volume    Pcnt  Pcnt  Pcnt        Volume    Pcnt     Occurrence    Outflow
  Storage Unit           1000 m3    Full  Loss  Loss       1000 m3    Full    days hr:min        LPS
  --------------------------------------------------------------------------------------------------
  JK-storage               0.202      69     0     0         0.245      84       0  02:49     983.00
  CC-storage               2.331      15     0     0         3.852      25       0  03:56     135.68
  XR-storage               0.876      95     0     0         0.926     100       0  02:25     285.00
  
  
  ***********************
  Outfall Loading Summary
  ***********************
  
  ---------------------------------------------------------------------------------------------------------------------------------
                         Flow       Avg       Max       Total         Total         Total         Total         Total         Total
                         Freq      Flow      Flow      Volume           COD            SS            TN            TP         NH4-N
  Outfall Node           Pcnt       LPS       LPS    10^6 ltr            kg            kg            kg            kg            kg
  ---------------------------------------------------------------------------------------------------------------------------------
  WSC                   99.99    475.73    822.91      12.228      1745.649      2852.985       140.162        17.093        86.475
  ---------------------------------------------------------------------------------------------------------------------------------
  System                99.99    475.73    822.91      12.228      1745.649      2852.985       140.162        17.093        86.475
  
  
  ********************
  Link Flow Summary
  ********************
  
  -----------------------------------------------------------------------------
                                 Maximum  Time of Max   Maximum    Max/    Max/
                                  |Flow|   Occurrence   |Veloc|    Full    Full
  Link                 Type          LPS  days hr:min     m/sec    Flow   Depth
  -----------------------------------------------------------------------------
  WS02003066WSF200     CONDUIT    515.34     0  02:31      2.69    0.09    0.23
  WS02006287WS02006284 CONDUIT    282.09     0  02:12      1.80    0.13    0.25
  WS02006284WS02006280 CONDUIT    282.21     0  02:13      2.04    0.12    0.23
  WS02006280WS02006229 CONDUIT    282.22     0  02:13      3.29    0.06    0.17
  WS02006229WS02006228 CONDUIT    513.40     0  02:23      1.02    1.70    1.00
  WS02006256WS02006235 CONDUIT    287.94     0  07:47      4.18    3.05    1.00
  WS02006253WS02006251 CONDUIT     56.88     0  02:12      0.55    0.17    0.31
  WS02006252WS02006251 CONDUIT      0.00     0  00:00      0.00    0.00    0.00
  WS02006251WS02006249 CONDUIT     56.87     0  02:13      0.60    0.16    0.32
  WS02006249WS02006248 CONDUIT     56.81     0  02:13      0.71    0.31    0.35
  WS02006248WS02006247 CONDUIT     56.81     0  02:15      0.69    0.12    0.42
  WS02006247WS02006245 CONDUIT     56.95     0  02:14      0.64    0.45    0.49
  WS02006245WS02006243 CONDUIT     58.72     0  02:14      0.77    0.17    0.54
  WS02006243WS02006242 CONDUIT     61.58     0  02:15      0.63    0.13    0.68
  WS02006242WS02006240 CONDUIT     80.68     0  04:21      0.71    0.32    0.78
  WS02006240WS02006239 CONDUIT    102.68     0  04:21      0.75    0.32    0.80
  WS02006239WS02006238 CONDUIT    128.35     0  04:20      0.86    0.41    0.92
  WS02006238WS02006235 CONDUIT    200.94     0  02:11      1.25    0.45    0.97
  WS02006235WS02006234 CONDUIT    291.12     0  02:37      1.06    3.07    0.92
  WS02006234WS02006232 CONDUIT    292.12     0  02:38      0.97    0.59    0.96
  WS02006232WS02006231 CONDUIT    292.45     0  02:36      0.86    0.61    0.94
  WS02006231WS02006230 CONDUIT    293.87     0  02:37      1.21    4.46    0.86
  WS02006230WS02006229 CONDUIT    305.90     0  02:37      0.79    6.81    1.00
  WS02006228WS02006109 CONDUIT    513.39     0  02:23      1.02    2.24    1.00
  WS02006116WS02004401 CONDUIT    520.52     0  02:26      0.75    0.72    0.82
  WS02006115WS02006116 CONDUIT    521.36     0  02:25      0.86    0.67    0.74
  WS02006113WS02006111 CONDUIT    531.61     0  02:26      2.42    0.64    0.45
  WS02006112WS02006115 CONDUIT    525.03     0  02:25      0.73    0.31    0.86
  WS02006111WS02006112 CONDUIT    518.08     0  02:25      1.45    0.25    0.67
  WS02006110WS02006113 CONDUIT    514.77     0  02:23      1.23    0.47    0.78
  WS02006109WS02006110 CONDUIT    514.68     0  02:22      1.02    0.99    1.00
  WS02004411WS02004412 CONDUIT    515.63     0  02:30      0.90    0.73    0.68
  WS02004401WS02004402 CONDUIT    519.46     0  02:26      0.73    0.62    0.85
  WS02004413WS02003067 CONDUIT    515.31     0  02:31      1.09    0.22    0.58
  WS02004412WS02004413 CONDUIT    515.46     0  02:31      0.80    0.35    0.77
  WS02004410WS02004411 CONDUIT    516.00     0  02:29      0.92    0.70    0.67
  WS02004409WS02004410 CONDUIT    516.81     0  02:29      0.95    0.67    0.66
  WS02004407WS02004409 CONDUIT    518.47     0  02:27      1.47    0.18    0.47
  WS02004406WS02004407 CONDUIT    518.69     0  02:27      1.02    0.23    0.62
  WS02004405WS02004406 CONDUIT    518.82     0  02:26      0.68    1.02    0.94
  WS02004404WS02004405 CONDUIT    518.94     0  02:26      0.67    5.08    0.95
  WS02004403WS02004404 CONDUIT    518.92     0  02:26      0.69    0.38    0.91
  WS02004402WS02004403 CONDUIT    519.14     0  02:26      0.72    0.75    0.87
  WS02004139WS02001211 CONDUIT    286.64     0  01:58      0.54    0.36    0.53
  WS02004138WS02004139 CONDUIT    285.00     0  07:20      2.39    0.06    0.39
  WS02003067WS02003066 CONDUIT    515.32     0  02:31      1.18    0.17    0.41
  WS02001213WS02003059 CONDUIT    297.85     0  04:34      0.59    0.49    0.72
  WS02001212WS02001213 CONDUIT    295.72     0  04:34      1.19    0.46    0.41
  WS02001211WS02001212 CONDUIT    294.64     0  04:35      0.67    0.23    0.58
  WS02003072WS02003073 CONDUIT    821.06     0  02:35      1.65    1.77    0.45
  WS02003069WS02003072 CONDUIT    821.04     0  02:34      1.55    0.40    0.47
  WS02003060WS02003069 CONDUIT    820.73     0  02:34      1.80    0.32    0.42
  WS02003059WS02003060 CONDUIT    300.96     0  04:33      0.82    0.20    0.62
  HS02004901HS02004770 CONDUIT     14.11     0  02:10      0.06    0.05    0.36
  HS02004876HS02004881 CONDUIT     49.74     0  02:12      0.73    0.53    0.10
  HS02004870HS02004876 CONDUIT     39.63     0  02:13      0.51    0.03    0.11
  HS02004842HS02004848 CONDUIT      7.14     0  02:23      0.04    0.00    0.29
  HS02004837HS02004842 CONDUIT      7.41     0  02:23      0.42    0.00    0.30
  HS02004830HS02004837 CONDUIT     30.34     0  02:12      0.49    0.03    0.09
  HS02004824HS02004830 CONDUIT     30.48     0  02:13      0.53    0.04    0.08
  HS02004817HS02004824 CONDUIT     51.84     0  02:15      0.17    0.02    0.43
  HS02004770HS02004777 CONDUIT     72.29     0  02:09      0.28    0.13    0.37
  HS02004799HS02004480 CONDUIT    179.14     0  02:10      0.70    0.23    0.37
  HS02004792HS02004799 CONDUIT    163.55     0  02:10      0.79    0.10    0.29
  HS02004788HS02004792 CONDUIT     95.05     0  02:11      0.93    0.06    0.15
  HS02004785HS02004788 CONDUIT     71.92     0  02:11      0.60    0.54    0.17
  HS02004777HS02004785 CONDUIT     71.85     0  02:10      0.34    0.09    0.31
  HS02004480HS02004478 CONDUIT    211.78     0  02:11      1.09    0.89    0.28
  HS02004479HS02004480 CONDUIT     33.35     0  02:13      0.17    0.03    0.36
  HS02004862HS02004870 CONDUIT     29.29     0  02:13      0.54    0.03    0.08
  HS02004848HS02004852 CONDUIT     12.42     0  02:12      0.37    0.01    0.05
  HS02004856HS02004862 CONDUIT     20.08     0  02:13      0.40    0.02    0.07
  HS02004852HS02004856 CONDUIT     12.38     0  02:14      0.17    0.01    0.10
  HS02004802HS02004478 CONDUIT     72.41     0  02:16      0.36    0.06    0.30
  HS02004478WS02006287 CONDUIT    282.05     0  02:12      1.50    0.08    0.21
  HS02004817HS02004807 CONDUIT     53.19     0  02:17      0.14    0.03    0.56
  HS02004807HS02004802 CONDUIT     71.85     0  02:15      0.30    0.14    0.34
  YS02001759YS02001757 CONDUIT    323.36     0  02:52      0.41    0.23    1.00
  YS02001762YS02001759 CONDUIT    185.48     0  02:52      0.24    0.21    1.00
  YS02001765YS02001762 CONDUIT    180.95     0  02:52      0.25    0.17    1.00
  YS02001770YS02001767 CONDUIT    173.50     0  02:49      0.29    0.69    1.00
  YS02001774YS02001770 CONDUIT     76.68     0  04:03      0.14    0.05    1.00
  YS02001779YS02001774 CONDUIT     75.79     0  04:03      0.10    0.04    1.00
  YS02001649YS02001757 CONDUIT    472.12     0  02:47      0.60    0.29    1.00
  YS02001767YS02001765 CONDUIT    176.72     0  02:52      0.27    0.22    1.00
  YS02006561YS02001783 CONDUIT    478.22     0  02:44      1.97    0.25    0.49
  YS02001783YS02001784 CONDUIT    478.01     0  02:45      1.41    0.66    0.64
  YS02001784YS02001785 CONDUIT    479.05     0  02:45      1.52    1.11    0.60
  YS02001788YS02001790 CONDUIT    479.19     0  02:46      2.08    0.35    0.47
  YS02001790YS02001791 CONDUIT    479.32     0  02:46      2.47    0.52    0.41
  YS02001791YS02001793 CONDUIT    480.78     0  02:46      4.08    0.21    0.65
  YS02001910YS02001907 CONDUIT    154.18     0  03:00      0.49    0.09    0.85
  YS02001786YS02001788 CONDUIT    479.10     0  02:45      1.97    0.92    0.49
  YS02001915YS02001910 CONDUIT    152.28     0  02:59      0.45    0.08    0.65
  YS02001918YS02001915 CONDUIT     52.99     0  03:05      0.44    0.03    0.36
  YS02001923YS02001920 CONDUIT     47.77     0  03:01      0.53    0.02    0.18
  YS02001926YS02001923 CONDUIT     47.73     0  03:01      0.58    0.07    0.16
  YS02001929YS02001926 CONDUIT     47.73     0  03:01      0.62    0.02    0.15
  YS02001920YS02001918 CONDUIT     51.22     0  03:00      0.53    0.05    0.23
  YS02001629YS02163301 CONDUIT    116.18     0  02:54      0.15    0.14    1.00
  YS02001619YS02001622 CONDUIT    156.99     0  02:57      0.69    0.23    1.00
  YS02001622YS02001625 CONDUIT    216.84     0  02:57      0.29    0.12    1.00
  YS02001625YS02001629 CONDUIT    215.59     0  02:57      0.28    0.10    1.00
  YS02163301YS02001633 CONDUIT    115.27     0  02:54      0.15    0.11    1.00
  YS02163601YS02164001 CONDUIT    221.33     0  02:54      0.28    0.20    1.00
  YS02164001YS02001641 CONDUIT    220.97     0  02:54      0.28    0.30    1.00
  YS02001641YS02001644 CONDUIT    220.66     0  02:54      0.28    0.71    1.00
  YS02001647YS02001649 CONDUIT    342.21     0  04:00      0.44    0.18    1.00
  YS02006553YS02006556 CONDUIT    326.37     0  02:48      0.43    0.28    0.93
  YS02006556YS02006558 CONDUIT    333.24     0  02:58      0.43    0.26    0.96
  YSB6556YSB1171       CONDUIT     18.26     0  02:13      0.07    0.02    0.63
  YS02001907YS02006553 CONDUIT    326.18     0  02:47      0.36    0.38    1.00
  YS02006558YS02006561 CONDUIT    513.62     0  02:45      2.76    1.14    0.63
  YS02001633YS02163601 CONDUIT    221.37     0  02:54      0.28    0.23    1.00
  YS02001644YS02001647 CONDUIT    342.67     0  04:00      0.44    0.20    1.00
  YS02001745YS02001748 CONDUIT    264.72     0  02:54      1.53    0.10    0.93
  YS02001748YS02001751 CONDUIT    356.67     0  02:53      1.17    0.18    1.00
  YS02001751YS02001754 CONDUIT    177.22     0  02:57      0.91    0.09    1.00
  YS02001754YS02001757 CONDUIT    174.91     0  02:57      0.33    0.07    1.00
  YS02001882YS02001884 CONDUIT      4.88     0  02:04      0.07    0.01    0.58
  YS02001884YS02001887 CONDUIT     13.92     0  02:04      0.05    0.02    0.68
  YS02001890YS02001895 CONDUIT    182.39     0  02:34      0.35    0.08    0.65
  YS02001895YS02001898 CONDUIT    182.26     0  02:33      0.47    0.32    0.51
  YS02001898YS02001901 CONDUIT    181.64     0  02:33      0.39    0.12    0.59
  YS02001901YS02001904 CONDUIT    182.05     0  02:33      0.35    0.28    0.64
  YS02001904YS02001907 CONDUIT    181.15     0  02:32      0.27    0.06    0.80
  YS02001887YS02001890 CONDUIT    182.78     0  02:34      0.30    0.31    0.73
  YS02001652YS02001649 CONDUIT    190.72     0  02:52      0.38    0.09    1.00
  YS02001655YS02001652 CONDUIT    212.80     0  02:52      0.95    0.10    1.00
  YS02001658YS02001655 CONDUIT    368.34     0  02:50      1.35    0.16    1.00
  YS02001661YS02001658 CONDUIT    326.31     0  02:58      1.60    0.13    0.96
  YS02001664YS02001661 CONDUIT    285.96     0  03:35      1.34    0.09    0.71
  YSB1154YSB6556       CONDUIT     17.94     0  02:12      0.19    0.03    0.52
  YSB1174YSB1171       CONDUIT     15.68     0  02:07      0.06    0.02    0.63
  YSB1171HS02004479    CONDUIT     33.07     0  02:12      0.54    0.02    0.49
  HS02004881HS02006253 CONDUIT     55.46     0  02:12      1.91    0.01    0.04
  YS02001793JiankangQianchi CONDUIT    916.91     0  02:35      1.56    0.07    1.00
  YS02001757CaochengTiaoxuchi CONDUIT    831.36     0  02:53      1.56    0.37    1.00
  WSF200WS02003060     CONDUIT    515.39     0  02:32      1.63    0.11    0.32
  1                    CONDUIT    822.91     0  02:36      3.16    0.29    0.37
  CC-Pump-1            PUMP         0.00     0  00:00              0.00
  CC-Pump-2            PUMP         0.00     0  00:00              0.00
  JK-Pump-1            PUMP       300.00     0  02:11              1.00
  JK-Pump-2            PUMP       683.00     0  02:21              1.00
  XR-Pump-1            PUMP        95.00     0  00:00              1.00
  XR-Pump-2            PUMP        95.00     0  00:25              1.00
  XR-Pump-3            PUMP        95.00     0  01:56              1.00
  XR-Pump-4            PUMP         0.00     0  00:00              0.00
  
  
  ***************************
  Flow Classification Summary
  ***************************
  
  -------------------------------------------------------------------------------------
                      Adjusted    ---------- Fraction of Time in Flow Class ---------- 
                       /Actual         Up    Down  Sub   Sup   Up    Down  Norm  Inlet 
  Conduit               Length    Dry  Dry   Dry   Crit  Crit  Crit  Crit  Ltd   Ctrl  
  -------------------------------------------------------------------------------------
  WS02003066WSF200        1.00   0.22  0.00  0.00  0.00  0.78  0.00  0.00  0.66  0.00
  WS02006287WS02006284    1.00   0.07  0.05  0.00  0.52  0.36  0.00  0.00  0.76  0.00
  WS02006284WS02006280    1.00   0.09  0.00  0.00  0.00  0.00  0.00  0.91  0.00  0.00
  WS02006280WS02006229    1.00   0.09  0.00  0.00  0.00  0.00  0.00  0.91  0.00  0.00
  WS02006229WS02006228    1.00   0.00  0.00  0.00  0.99  0.00  0.00  0.01  0.00  0.00
  WS02006256WS02006235    1.00   0.14  0.00  0.00  0.84  0.01  0.00  0.00  0.02  0.00
  WS02006253WS02006251    1.00   0.03  0.04  0.00  0.92  0.00  0.01  0.00  0.00  0.00
  WS02006252WS02006251    1.00   1.00  0.00  0.00  0.00  0.00  0.00  0.00  0.00  0.00
  WS02006251WS02006249    1.00   0.00  0.00  0.00  1.00  0.00  0.00  0.00  0.86  0.00
  WS02006249WS02006248    1.00   0.00  0.01  0.00  0.49  0.00  0.50  0.00  0.00  0.00
  WS02006248WS02006247    1.00   0.01  0.00  0.00  0.95  0.00  0.00  0.03  0.49  0.00
  WS02006247WS02006245    1.00   0.02  0.00  0.00  0.92  0.00  0.00  0.06  0.00  0.00
  WS02006245WS02006243    1.00   0.02  0.00  0.00  0.85  0.00  0.00  0.13  0.02  0.00
  WS02006243WS02006242    1.00   0.03  0.00  0.00  0.89  0.00  0.00  0.08  0.33  0.00
  WS02006242WS02006240    1.00   0.03  0.08  0.00  0.87  0.00  0.01  0.00  0.00  0.00
  WS02006240WS02006239    1.00   0.12  0.00  0.00  0.79  0.00  0.00  0.10  0.04  0.00
  WS02006239WS02006238    1.00   0.12  0.00  0.00  0.86  0.00  0.00  0.03  0.01  0.00
  WS02006238WS02006235    1.00   0.12  0.02  0.00  0.86  0.00  0.00  0.00  0.00  0.00
  WS02006235WS02006234    1.00   0.15  0.00  0.00  0.79  0.00  0.06  0.00  0.00  0.00
  WS02006234WS02006232    1.00   0.15  0.00  0.00  0.85  0.00  0.00  0.00  0.01  0.00
  WS02006232WS02006231    1.00   0.16  0.03  0.00  0.81  0.00  0.00  0.00  0.01  0.00
  WS02006231WS02006230    1.00   0.18  0.00  0.00  0.29  0.00  0.54  0.00  0.00  0.00
  WS02006230WS02006229    1.00   0.00  0.00  0.00  0.98  0.00  0.00  0.02  0.01  0.00
  WS02006228WS02006109    1.00   0.00  0.00  0.00  1.00  0.00  0.00  0.00  0.01  0.00
  WS02006116WS02004401    1.00   0.07  0.00  0.00  0.93  0.00  0.00  0.00  0.01  0.00
  WS02006115WS02006116    1.00   0.07  0.00  0.00  0.86  0.00  0.00  0.07  0.00  0.00
  WS02006113WS02006111    1.00   0.04  0.00  0.00  0.02  0.94  0.00  0.00  0.28  0.00
  WS02006112WS02006115    1.00   0.04  0.02  0.00  0.93  0.00  0.00  0.00  0.00  0.00
  WS02006111WS02006112    1.00   0.04  0.00  0.00  0.95  0.00  0.00  0.01  0.92  0.00
  WS02006110WS02006113    1.00   0.01  0.03  0.00  0.96  0.00  0.00  0.00  0.00  0.00
  WS02006109WS02006110    1.00   0.00  0.01  0.00  0.98  0.00  0.01  0.00  0.00  0.00
  WS02004411WS02004412    1.00   0.18  0.00  0.00  0.82  0.00  0.00  0.00  0.00  0.00
  WS02004401WS02004402    1.00   0.07  0.00  0.00  0.93  0.00  0.00  0.00  0.04  0.00
  WS02004413WS02003067    1.00   0.18  0.03  0.00  0.00  0.00  0.79  0.00  0.00  0.00
  WS02004412WS02004413    1.00   0.18  0.00  0.00  0.81  0.01  0.00  0.00  0.00  0.00
  WS02004410WS02004411    1.00   0.17  0.00  0.00  0.83  0.00  0.00  0.00  0.00  0.00
  WS02004409WS02004410    1.00   0.17  0.00  0.00  0.83  0.00  0.00  0.00  0.00  0.00
  WS02004407WS02004409    1.00   0.17  0.00  0.00  0.81  0.02  0.00  0.00  0.74  0.00
  WS02004406WS02004407    1.00   0.00  0.17  0.00  0.83  0.00  0.00  0.00  0.00  0.00
  WS02004405WS02004406    1.00   0.00  0.00  0.00  1.00  0.00  0.00  0.00  0.04  0.00
  WS02004404WS02004405    1.00   0.00  0.00  0.00  1.00  0.00  0.00  0.00  0.02  0.00
  WS02004403WS02004404    1.00   0.00  0.07  0.00  0.93  0.00  0.00  0.00  0.04  0.00
  WS02004402WS02004403    1.00   0.07  0.00  0.00  0.93  0.00  0.00  0.00  0.00  0.00
  WS02004139WS02001211    1.00   0.00  0.00  0.00  1.00  0.00  0.00  0.00  0.00  0.00
  WS02004138WS02004139    1.00   0.00  0.00  0.00  0.99  0.01  0.00  0.00  1.00  0.00
  WS02003067WS02003066    1.00   0.21  0.01  0.00  0.78  0.00  0.00  0.00  0.00  0.00
  WS02001213WS02003059    1.00   0.00  0.00  0.00  0.99  0.00  0.00  0.00  0.00  0.00
  WS02001212WS02001213    1.00   0.00  0.00  0.00  0.44  0.00  0.55  0.00  0.00  0.00
  WS02001211WS02001212    1.00   0.00  0.00  0.00  1.00  0.00  0.00  0.00  0.00  0.00
  WS02003072WS02003073    1.00   0.00  0.00  0.00  0.00  0.00  0.00  1.00  0.00  0.00
  WS02003069WS02003072    1.00   0.00  0.00  0.00  1.00  0.00  0.00  0.00  0.32  0.00
  WS02003060WS02003069    1.00   0.00  0.00  0.00  0.99  0.01  0.00  0.00  0.23  0.00
  WS02003059WS02003060    1.00   0.00  0.00  0.00  1.00  0.00  0.00  0.00  0.02  0.00
  HS02004901HS02004770    1.00   0.08  0.00  0.00  0.91  0.00  0.00  0.00  0.01  0.00
  HS02004876HS02004881    1.00   0.01  0.00  0.00  0.99  0.00  0.00  0.00  0.00  0.00
  HS02004870HS02004876    1.00   0.00  0.00  0.00  0.99  0.01  0.00  0.00  0.95  0.00
  HS02004842HS02004848    1.00   0.00  0.09  0.00  0.91  0.00  0.00  0.00  0.65  0.00
  HS02004837HS02004842    1.00   0.00  0.00  0.00  1.00  0.00  0.00  0.00  0.11  0.00
  HS02004830HS02004837    1.00   0.00  0.00  0.00  1.00  0.00  0.00  0.00  0.99  0.00
  HS02004824HS02004830    1.00   0.00  0.00  0.00  1.00  0.00  0.00  0.00  0.00  0.00
  HS02004817HS02004824    1.00   0.00  0.00  0.00  1.00  0.00  0.00  0.00  1.00  0.00
  HS02004770HS02004777    1.00   0.00  0.09  0.00  0.91  0.00  0.00  0.00  0.05  0.00
  HS02004799HS02004480    1.00   0.00  0.02  0.00  0.88  0.00  0.10  0.00  0.00  0.00
  HS02004792HS02004799    1.00   0.00  0.00  0.00  0.99  0.01  0.00  0.00  0.98  0.00
  HS02004788HS02004792    1.00   0.00  0.00  0.00  0.99  0.01  0.00  0.00  0.98  0.00
  HS02004785HS02004788    1.00   0.00  0.00  0.00  1.00  0.00  0.00  0.00  0.00  0.00
  HS02004777HS02004785    1.00   0.00  0.00  0.00  1.00  0.00  0.00  0.00  0.17  0.00
  HS02004480HS02004478    1.00   0.09  0.00  0.00  0.56  0.00  0.00  0.35  0.00  0.00
  HS02004479HS02004480    1.00   0.02  0.00  0.00  0.98  0.00  0.00  0.00  0.15  0.00
  HS02004862HS02004870    1.00   0.00  0.00  0.00  1.00  0.00  0.00  0.00  0.05  0.00
  HS02004848HS02004852    1.00   0.09  0.00  0.00  0.91  0.00  0.00  0.00  0.72  0.00
  HS02004856HS02004862    1.00   0.00  0.15  0.00  0.85  0.00  0.00  0.00  0.77  0.00
  HS02004852HS02004856    1.00   0.08  0.02  0.00  0.90  0.00  0.00  0.00  0.84  0.00
  HS02004802HS02004478    1.00   0.09  0.01  0.00  0.90  0.00  0.00  0.00  0.01  0.00
  HS02004478WS02006287    1.00   0.12  0.00  0.00  0.72  0.16  0.00  0.00  0.74  0.00
  HS02004817HS02004807    1.00   0.00  0.09  0.00  0.91  0.00  0.00  0.00  0.00  0.00
  HS02004807HS02004802    1.00   0.09  0.00  0.00  0.90  0.00  0.00  0.01  0.01  0.00
  YS02001759YS02001757    1.00   0.00  0.00  0.00  1.00  0.00  0.00  0.00  0.18  0.00
  YS02001762YS02001759    1.00   0.00  0.00  0.00  1.00  0.00  0.00  0.00  0.04  0.00
  YS02001765YS02001762    1.00   0.00  0.00  0.00  1.00  0.00  0.00  0.00  0.20  0.00
  YS02001770YS02001767    1.00   0.00  0.00  0.00  1.00  0.00  0.00  0.00  0.00  0.00
  YS02001774YS02001770    1.00   0.00  0.10  0.00  0.90  0.00  0.00  0.00  0.05  0.00
  YS02001779YS02001774    1.00   0.00  0.00  0.00  1.00  0.00  0.00  0.00  0.24  0.00
  YS02001649YS02001757    1.00   0.00  0.00  0.00  1.00  0.00  0.00  0.00  0.18  0.00
  YS02001767YS02001765    1.00   0.00  0.00  0.00  1.00  0.00  0.00  0.00  0.01  0.00
  YS02006561YS02001783    1.00   0.16  0.00  0.00  0.00  0.84  0.00  0.00  0.62  0.00
  YS02001783YS02001784    1.00   0.00  0.16  0.00  0.84  0.00  0.00  0.00  0.01  0.00
  YS02001784YS02001785    1.00   0.00  0.00  0.00  1.00  0.00  0.00  0.00  0.23  0.00
  YS02001788YS02001790    1.00   0.00  0.00  0.00  0.17  0.83  0.00  0.00  0.68  0.00
  YS02001790YS02001791    1.00   0.00  0.00  0.00  0.01  0.99  0.00  0.00  0.65  0.00
  YS02001791YS02001793    1.00   0.00  0.00  0.00  0.34  0.66  0.00  0.00  0.40  0.00
  YS02001910YS02001907    1.00   0.00  0.00  0.00  0.98  0.00  0.00  0.02  0.13  0.00
  YS02001786YS02001788    1.00   0.00  0.00  0.00  0.18  0.82  0.00  0.00  0.00  0.00
  YS02001915YS02001910    1.00   0.00  0.00  0.00  0.99  0.01  0.00  0.00  0.22  0.00
  YS02001918YS02001915    1.00   0.00  0.00  0.00  0.99  0.01  0.00  0.00  0.69  0.00
  YS02001923YS02001920    1.00   0.00  0.00  0.00  1.00  0.00  0.00  0.00  1.00  0.00
  YS02001926YS02001923    1.00   0.00  0.05  0.00  0.00  0.00  0.95  0.00  0.00  0.00
  YS02001929YS02001926    1.00   0.00  0.08  0.00  0.92  0.00  0.00  0.00  0.87  0.00
  YS02001920YS02001918    1.00   0.00  0.00  0.00  1.00  0.00  0.00  0.00  0.00  0.00
  YS02001629YS02163301    1.00   0.13  0.01  0.00  0.86  0.00  0.00  0.00  0.00  0.00
  YS02001619YS02001622    1.00   0.08  0.00  0.00  0.92  0.00  0.00  0.00  0.00  0.00
  YS02001622YS02001625    1.00   0.09  0.00  0.00  0.91  0.00  0.00  0.00  0.10  0.00
  YS02001625YS02001629    1.00   0.09  0.08  0.00  0.79  0.00  0.04  0.00  0.00  0.00
  YS02163301YS02001633    1.00   0.00  0.13  0.00  0.87  0.00  0.00  0.00  0.00  0.00
  YS02163601YS02164001    1.00   0.00  0.05  0.00  0.95  0.00  0.00  0.00  0.00  0.00
  YS02164001YS02001641    1.00   0.01  0.05  0.00  0.95  0.00  0.00  0.00  0.07  0.00
  YS02001641YS02001644    1.00   0.00  0.00  0.00  1.00  0.00  0.00  0.00  0.00  0.00
  YS02001647YS02001649    1.00   0.00  0.15  0.00  0.85  0.00  0.00  0.00  0.01  0.00
  YS02006553YS02006556    1.00   0.01  0.00  0.00  0.99  0.00  0.00  0.00  0.03  0.00
  YS02006556YS02006558    1.00   0.00  0.00  0.00  1.00  0.00  0.00  0.00  0.00  0.00
  YSB6556YSB1171          1.00   0.03  0.05  0.00  0.92  0.00  0.00  0.00  0.00  0.00
  YS02001907YS02006553    1.00   0.00  0.01  0.00  0.98  0.00  0.00  0.00  0.00  0.00
  YS02006558YS02006561    1.00   0.16  0.00  0.00  0.00  0.84  0.00  0.00  0.67  0.00
  YS02001633YS02163601    1.00   0.00  0.00  0.00  1.00  0.00  0.00  0.00  0.18  0.00
  YS02001644YS02001647    1.00   0.00  0.15  0.00  0.85  0.00  0.00  0.00  0.00  0.00
  YS02001745YS02001748    1.00   0.00  0.00  0.00  0.75  0.01  0.00  0.24  0.06  0.00
  YS02001748YS02001751    1.00   0.00  0.00  0.00  0.92  0.08  0.00  0.00  0.17  0.00
  YS02001751YS02001754    1.00   0.00  0.00  0.00  0.82  0.00  0.00  0.18  0.02  0.00
  YS02001754YS02001757    1.00   0.00  0.00  0.00  1.00  0.00  0.00  0.00  0.24  0.00
  YS02001882YS02001884    1.00   0.12  0.01  0.00  0.87  0.00  0.00  0.00  0.00  0.00
  YS02001884YS02001887    1.00   0.04  0.03  0.00  0.93  0.00  0.00  0.00  0.00  0.00
  YS02001890YS02001895    1.00   0.00  0.13  0.00  0.87  0.00  0.00  0.00  0.00  0.00
  YS02001895YS02001898    1.00   0.13  0.00  0.00  0.83  0.00  0.03  0.00  0.00  0.00
  YS02001898YS02001901    1.00   0.13  0.01  0.00  0.86  0.00  0.00  0.00  0.02  0.00
  YS02001901YS02001904    1.00   0.13  0.00  0.00  0.87  0.00  0.00  0.00  0.00  0.00
  YS02001904YS02001907    1.00   0.00  0.13  0.00  0.87  0.00  0.00  0.00  0.00  0.00
  YS02001887YS02001890    1.00   0.00  0.00  0.00  0.98  0.00  0.02  0.00  0.00  0.00
  YS02001652YS02001649    1.00   0.00  0.00  0.00  1.00  0.00  0.00  0.00  0.22  0.00
  YS02001655YS02001652    1.00   0.00  0.00  0.00  0.82  0.00  0.00  0.17  0.02  0.00
  YS02001658YS02001655    1.00   0.00  0.11  0.00  0.80  0.09  0.00  0.00  0.08  0.00
  YS02001661YS02001658    1.00   0.11  0.00  0.00  0.75  0.14  0.00  0.00  0.05  0.00
  YS02001664YS02001661    1.00   0.08  0.00  0.00  0.77  0.15  0.00  0.00  0.28  0.00
  YSB1154YSB6556          1.00   0.08  0.00  0.00  0.92  0.00  0.00  0.00  0.02  0.00
  YSB1174YSB1171          1.00   0.03  0.03  0.00  0.94  0.00  0.00  0.00  0.00  0.00
  YSB1171HS02004479       1.00   0.02  0.00  0.00  0.97  0.00  0.00  0.01  0.13  0.00
  HS02004881HS02006253    1.00   0.03  0.00  0.00  0.00  0.00  0.00  0.97  0.00  0.00
  YS02001793JiankangQianchi    1.00   0.00  0.00  0.00  1.00  0.00  0.00  0.00  0.56  0.00
  YS02001757CaochengTiaoxuchi    1.00   0.00  0.20  0.00  0.80  0.00  0.00  0.00  0.00  0.00
  WSF200WS02003060        1.00   0.00  0.22  0.00  0.78  0.00  0.00  0.00  0.56  0.00
  1                       1.00   0.00  0.00  0.00  0.00  1.00  0.00  0.00  0.33  0.00
  
  
  *************************
  Conduit Surcharge Summary
  *************************
  
  ----------------------------------------------------------------------------
                                                           Hours        Hours 
                         --------- Hours Full --------   Above Full   Capacity
  Conduit                Both Ends  Upstream  Dnstream   Normal Flow   Limited
  ----------------------------------------------------------------------------
  WS02006229WS02006228        0.73      0.77      0.73      1.45         0.73
  WS02006256WS02006235        3.98      4.04      5.77      3.49         0.01
  WS02006235WS02006234        0.01      0.01      0.01      3.67         0.01
  WS02006234WS02006232        0.01      0.01      0.31      0.01         0.01
  WS02006232WS02006231        0.01      0.01      0.31      0.01         0.01
  WS02006231WS02006230        0.01      0.01      0.01      4.31         0.01
  WS02006230WS02006229        0.99      1.18      0.99      4.93         0.99
  WS02006228WS02006109        0.75      0.88      0.75      2.44         0.75
  WS02006112WS02006115        0.01      0.01      0.27      0.01         0.01
  WS02006111WS02006112        0.01      0.01      1.89      0.01         0.01
  WS02006110WS02006113        0.01      0.01      0.82      0.01         0.01
  WS02006109WS02006110        0.01      0.01      0.88      0.01         0.01
  WS02004405WS02004406        0.01      0.01      0.01      0.16         0.01
  WS02004404WS02004405        0.01      0.01      0.01      4.66         0.01
  WS02003072WS02003073        0.01      0.01      0.01      3.27         0.01
  YS02001759YS02001757        5.52      5.52      5.58      0.01         0.01
  YS02001762YS02001759        5.50      5.50      5.52      0.01         0.01
  YS02001765YS02001762        5.47      5.47      5.50      0.01         0.01
  YS02001770YS02001767        5.45      5.45      5.45      0.01         0.53
  YS02001774YS02001770        5.43      5.43      5.48      0.01         0.01
  YS02001779YS02001774        5.04      5.04      5.48      0.01         0.01
  YS02001649YS02001757        5.50      5.50      5.58      0.01         0.01
  YS02001767YS02001765        5.45      5.45      5.47      0.01         0.01
  YS02001784YS02001785        0.01      0.01      0.01      0.77         0.01
  YS02001791YS02001793        0.01      0.01      0.23      0.01         0.01
  YS02001629YS02163301        5.42      5.42      5.44      0.01         0.01
  YS02001619YS02001622        4.70      4.70      4.73      0.01         0.01
  YS02001622YS02001625        4.73      4.73      5.37      0.01         0.01
  YS02001625YS02001629        4.70      4.70      5.37      0.01         0.01
  YS02163301YS02001633        5.44      5.44      5.48      0.01         0.01
  YS02163601YS02164001        5.47      5.47      5.50      0.01         0.01
  YS02164001YS02001641        5.47      5.47      5.48      0.01         0.01
  YS02001641YS02001644        5.48      5.48      5.48      0.01         0.50
  YS02001647YS02001649        5.31      5.31      5.50      0.01         0.01
  YS02001907YS02006553        0.81      0.81      1.04      0.01         0.01
  YS02006558YS02006561        0.01      0.01      0.01      0.45         0.01
  YS02001633YS02163601        5.46      5.46      5.50      0.01         0.01
  YS02001644YS02001647        5.31      5.31      5.48      0.01         0.01
  YS02001745YS02001748        0.01      0.01      4.38      0.01         0.01
  YS02001748YS02001751        4.49      4.49      4.75      0.01         0.01
  YS02001751YS02001754        4.75      4.75      5.15      0.01         0.01
  YS02001754YS02001757        5.31      5.31      5.58      0.01         0.01
  YS02001652YS02001649        5.33      5.33      5.50      0.01         0.01
  YS02001655YS02001652        4.80      4.80      5.27      0.01         0.01
  YS02001658YS02001655        4.40      4.40      4.80      0.01         0.01
  YS02001661YS02001658        0.01      0.01      4.40      0.01         0.01
  YS02001793JiankangQianchi        0.01      0.01      7.82      0.01         0.01
  YS02001757CaochengTiaoxuchi        4.51      4.51      5.58      0.01         0.01
  
  
  ***************
  Pumping Summary
  ***************
  
  ---------------------------------------------------------------------------------------------------------
                                                  Min       Avg       Max     Total     Power    % Time Off
                        Percent   Number of      Flow      Flow      Flow    Volume     Usage    Pump Curve
  Pump                 Utilized   Start-Ups       LPS       LPS       LPS  10^6 ltr     Kw-hr    Low   High
  ---------------------------------------------------------------------------------------------------------
  CC-Pump-1                0.00           0      0.00      0.00      0.00     0.000      0.00    0.0    0.0
  CC-Pump-2                0.00           0      0.00      0.00      0.00     0.000      0.00    0.0    0.0
  JK-Pump-1               44.35          11      0.00    300.00    300.00     3.752     42.43    0.0    0.0
  JK-Pump-2                3.23          19      0.00    683.00    683.00     0.622      6.41    0.0  100.0
  XR-Pump-1              100.00           1      0.00     95.00     95.00     2.679     16.22    0.0    0.0
  XR-Pump-2               94.70           1      0.00     95.00     95.00     2.537     14.79    0.0    0.0
  XR-Pump-3               72.37           1      0.00     95.00     95.00     1.939     10.19    0.0    0.0
  XR-Pump-4                0.00           0      0.00      0.00      0.00     0.000      0.00    0.0    0.0
  
  
  ***************************
  Link Pollutant Load Summary
  ***************************
  
  ------------------------------------------------------------------------------------------
                                 COD            SS            TN            TP         NH4-N
  Link                            kg            kg            kg            kg            kg
  ------------------------------------------------------------------------------------------
  WS02003066WSF200           378.828       656.931        13.391         1.330         7.494
  WS02006287WS02006284       138.109       243.260         6.853         0.766         4.031
  WS02006284WS02006280       138.528       243.938         6.892         0.771         4.056
  WS02006280WS02006229       138.509       243.902         6.891         0.770         4.055
  WS02006229WS02006228       380.626       658.282        13.439         1.332         7.517
  WS02006256WS02006235       228.974       388.082         6.349         0.552         3.379
  WS02006253WS02006251        18.261        34.330         0.458         0.037         0.235
  WS02006252WS02006251         0.000         0.000         0.000         0.000         0.000
  WS02006251WS02006249        18.853        35.305         0.511         0.043         0.267
  WS02006249WS02006248        18.782        35.166         0.508         0.043         0.265
  WS02006248WS02006247        19.214        35.909         0.523         0.045         0.274
  WS02006247WS02006245        20.674        38.265         0.582         0.051         0.308
  WS02006245WS02006243        22.821        41.837         0.652         0.057         0.345
  WS02006243WS02006242        27.254        49.115         0.776         0.067         0.411
  WS02006242WS02006240        35.086        61.726         1.010         0.088         0.537
  WS02006240WS02006239        42.485        73.575         1.253         0.110         0.670
  WS02006239WS02006238        50.372        86.029         1.535         0.137         0.827
  WS02006238WS02006235        55.222        93.589         1.714         0.155         0.928
  WS02006235WS02006234       244.019       417.266         6.662         0.574         3.530
  WS02006234WS02006232       244.048       417.347         6.663         0.574         3.531
  WS02006232WS02006231       243.125       415.871         6.620         0.570         3.506
  WS02006231WS02006230       243.138       415.913         6.619         0.570         3.505
  WS02006230WS02006229       243.610       416.900         6.630         0.571         3.511
  WS02006228WS02006109       379.701       656.863        13.363         1.322         7.470
  WS02006116WS02004401       387.456       670.365        13.921         1.391         7.813
  WS02006115WS02006116       388.127       671.386        13.959         1.395         7.835
  WS02006113WS02006111       386.251       667.404        14.013         1.404         7.878
  WS02006112WS02006115       388.798       672.471        14.004         1.401         7.863
  WS02006111WS02006112       386.058       667.127        14.000         1.403         7.870
  WS02006110WS02006113       386.486       667.790        14.033         1.407         7.890
  WS02006109WS02006110       387.466       669.371        14.115         1.417         7.941
  WS02004411WS02004412       381.227       660.690        13.561         1.351         7.598
  WS02004401WS02004402       386.599       669.004        13.867         1.385         7.780
  WS02004413WS02003067       379.421       657.860        13.423         1.334         7.513
  WS02004412WS02004413       380.321       659.268        13.506         1.344         7.565
  WS02004410WS02004411       381.841       661.646        13.598         1.355         7.620
  WS02004409WS02004410       382.348       662.435        13.632         1.359         7.640
  WS02004407WS02004409       382.729       663.010        13.653         1.361         7.653
  WS02004406WS02004407       382.823       663.121        13.657         1.361         7.655
  WS02004405WS02004406       384.619       665.965        13.799         1.379         7.743
  WS02004404WS02004405       385.405       667.163        13.829         1.381         7.759
  WS02004403WS02004404       384.973       666.454        13.765         1.373         7.719
  WS02004402WS02004403       385.769       667.714        13.817         1.379         7.750
  WS02004139WS02001211      1218.030      1958.143       112.249        13.943        69.893
  WS02004138WS02004139      1222.467      1965.295       112.644        13.992        70.139
  WS02003067WS02003066       378.882       657.009        13.396         1.331         7.497
  WS02001213WS02003059      1255.051      2017.264       115.867        14.396        72.158
  WS02001212WS02001213      1261.627      2027.853       116.461        14.470        72.527
  WS02001211WS02001212      1263.285      2030.509       116.617        14.489        72.625
  WS02003072WS02003073      1737.475      2839.956       139.281        16.981        85.921
  WS02003069WS02003072      1741.620      2846.570       139.678        17.031        86.168
  WS02003060WS02003069      1742.613      2848.157       139.750        17.039        86.212
  WS02003059WS02003060      1253.126      2014.156       115.699        14.376        72.054
  HS02004901HS02004770         3.971         7.335         0.076         0.006         0.035
  HS02004876HS02004881        15.357        28.747         0.408         0.034         0.211
  HS02004870HS02004876        11.729        21.841         0.347         0.030         0.183
  HS02004842HS02004848         2.151         3.860         0.047         0.003         0.021
  HS02004837HS02004842         6.769        11.207         0.515         0.062         0.315
  HS02004830HS02004837        51.961        85.653         4.297         0.528         2.660
  HS02004824HS02004830        52.710        86.853         4.368         0.537         2.705
  HS02004817HS02004824        61.234       102.783         4.571         0.551         2.807
  HS02004770HS02004777        15.263        28.437         0.325         0.021         0.148
  HS02004799HS02004480        59.594       106.305         2.277         0.235         1.276
  HS02004792HS02004799        54.881        96.994         2.238         0.236         1.266
  HS02004788HS02004792        34.483        60.681         1.701         0.187         0.989
  HS02004785HS02004788        16.761        30.847         0.478         0.041         0.244
  HS02004777HS02004785        16.217        29.966         0.429         0.035         0.214
  HS02004480HS02004478        73.052       132.039         2.461         0.245         1.355
  HS02004479HS02004480        17.721        32.523         0.589         0.061         0.332
  HS02004862HS02004870         8.743        15.940         0.288         0.027         0.155
  HS02004848HS02004852         2.772         5.035         0.060         0.004         0.027
  HS02004856HS02004862         5.230         9.844         0.107         0.007         0.050
  HS02004852HS02004856         2.768         5.028         0.059         0.004         0.027
  HS02004802HS02004478        65.376       111.744         4.420         0.524         2.694
  HS02004478WS02006287       138.294       243.566         6.869         0.768         4.041
  HS02004817HS02004807        59.872       100.604         4.442         0.535         2.726
  HS02004807HS02004802        66.014       112.759         4.482         0.532         2.733
  YS02001759YS02001757       157.608       270.490         3.463         0.244         1.720
  YS02001762YS02001759        81.611       141.165         1.978         0.145         1.005
  YS02001765YS02001762        81.015       140.046         1.989         0.147         1.014
  YS02001770YS02001767        78.539       136.007         1.689         0.108         0.822
  YS02001774YS02001770         8.011        13.754         0.200         0.015         0.102
  YS02001779YS02001774         7.471        12.588         0.338         0.036         0.196
  YS02001649YS02001757       225.610       378.064         5.253         0.397         2.619
  YS02001767YS02001765        80.971       139.909         2.002         0.149         1.021
  YS02006561YS02001783       330.775       563.473         8.508         0.707         4.444
  YS02001783YS02001784       330.704       563.374         8.504         0.706         4.442
  YS02001784YS02001785       338.067       575.175         9.217         0.796         4.888
  YS02001788YS02001790       338.736       576.273         9.290         0.805         4.934
  YS02001790YS02001791       339.723       577.866         9.388         0.817         4.996
  YS02001791YS02001793       339.722       577.874         9.392         0.818         4.998
  YS02001910YS02001907       112.838       188.631         4.011         0.374         2.225
  YS02001786YS02001788       338.299       575.560         9.245         0.799         4.906
  YS02001915YS02001910       112.748       188.441         3.965         0.367         2.194
  YS02001918YS02001915        57.322        91.893         2.735         0.299         1.606
  YS02001923YS02001920        37.330        59.920         0.791         0.056         0.390
  YS02001926YS02001923        36.967        59.336         0.752         0.051         0.365
  YS02001929YS02001926        36.702        58.902         0.721         0.047         0.345
  YS02001920YS02001918        57.259        91.813         2.709         0.296         1.589
  YS02001629YS02163301        41.631        69.378         0.919         0.058         0.425
  YS02001619YS02001622        45.065        74.750         0.999         0.062         0.461
  YS02001622YS02001625        44.230        73.518         0.977         0.061         0.451
  YS02001625YS02001629        43.158        71.937         0.951         0.059         0.440
  YS02163301YS02001633        41.988        70.010         0.924         0.058         0.429
  YS02163601YS02164001       117.261       194.043         2.512         0.178         1.210
  YS02164001YS02001641       116.871       193.412         2.492         0.176         1.199
  YS02001641YS02001644       117.620       194.652         2.498         0.176         1.200
  YS02001647YS02001649       202.116       336.399         4.396         0.310         2.141
  YS02006553YS02006556       239.639       406.818         6.501         0.563         3.456
  YS02006556YS02006558       239.591       406.725         6.469         0.559         3.435
  YSB6556YSB1171               9.439        17.484         0.246         0.023         0.133
  YS02001907YS02006553       239.632       406.823         6.498         0.563         3.455
  YS02006558YS02006561       330.733       563.386         8.505         0.707         4.443
  YS02001633YS02163601       117.911       195.012         2.495         0.174         1.196
  YS02001644YS02001647       204.600       340.748         4.433         0.312         2.157
  YS02001745YS02001748        62.806       106.999         1.337         0.078         0.639
  YS02001748YS02001751        67.544       114.729         1.802         0.137         0.931
  YS02001751YS02001754        65.441       111.044         1.813         0.142         0.947
  YS02001754YS02001757        66.352       112.483         1.983         0.165         1.057
  YS02001882YS02001884         0.798         1.290         0.021         0.002         0.011
  YS02001884YS02001887         3.012         5.060         0.072         0.006         0.037
  YS02001890YS02001895       127.939       219.837         2.515         0.192         1.245
  YS02001895YS02001898       127.802       219.644         2.509         0.191         1.241
  YS02001898YS02001901       127.683       219.477         2.506         0.191         1.240
  YS02001901YS02001904       127.713       219.561         2.524         0.193         1.252
  YS02001904YS02001907       128.377       220.668         2.609         0.204         1.306
  YS02001887YS02001890       128.785       221.141         2.578         0.199         1.283
  YS02001652YS02001649        56.367        94.623         1.634         0.143         0.841
  YS02001655YS02001652        57.353        96.176         1.661         0.145         0.854
  YS02001658YS02001655        55.463        93.289         1.321         0.100         0.634
  YS02001661YS02001658        57.980        97.702         1.236         0.084         0.565
  YS02001664YS02001661        58.889        98.928         1.259         0.085         0.575
  YSB1154YSB6556               8.947        16.701         0.186         0.016         0.095
  YSB1174YSB1171               6.431        12.064         0.166         0.016         0.089
  YSB1171HS02004479           17.633        32.391         0.580         0.060         0.327
  HS02004881HS02006253        17.322        32.558         0.444         0.036         0.228
  YS02001793JiankangQianchi       344.329       585.571         9.558         0.834         5.092
  YS02001757CaochengTiaoxuchi       292.753       504.618         6.751         0.519         3.391
  WSF200WS02003060           378.445       656.332        13.372         1.328         7.483
  1                         1745.649      2852.985       140.162        17.093        86.475
  CC-Pump-1                    0.000         0.000         0.000         0.000         0.000
  CC-Pump-2                    0.000         0.000         0.000         0.000         0.000
  JK-Pump-1                  274.621       465.802         7.582         0.658         4.032
  JK-Pump-2                   53.491        94.135         1.299         0.107         0.674
  XR-Pump-1                  446.684       717.857        41.284         5.130        25.713
  XR-Pump-2                  439.644       706.592        40.608         5.046        25.290
  XR-Pump-3                  338.583       544.781        30.973         3.843        19.272
  XR-Pump-4                    0.000         0.000         0.000         0.000         0.000
  

  Analysis begun on:  Sun Jul 11 15:17:02 2021
  Analysis ended on:  Sun Jul 11 15:17:03 2021
  Total elapsed time: 00:00:01