
  EPA STORM WATER MANAGEMENT MODEL - VERSION 5.1 (Build 5.3.0.dev0)
  --------------------------------------------------------------

  WARNING 04: minimum elevation drop used for Conduit WS02004404WS02004405
  WARNING 03: negative offset ignored for Link YS02001904YS02001907
  
  *********************************************************
  NOTE: The summary statistics displayed in this report are
  based on results found at every computational time step,  
  not just on results from each reporting time step.
  *********************************************************
  
  ****************
  Analysis Options
  ****************
  Flow Units ............... LPS
  Process Models:
    Rainfall/Runoff ........ YES
    RDII ................... NO
    Snowmelt ............... NO
    Groundwater ............ NO
    Flow Routing ........... YES
    Ponding Allowed ........ NO
    Water Quality .......... YES
  Infiltration Method ...... HORTON
  Flow Routing Method ...... DYNWAVE
  Surcharge Method ......... EXTRAN
  Starting Date ............ 08/28/2015 08:00:00
  Ending Date .............. 08/28/2015 15:50:00
  Antecedent Dry Days ...... 8.0
  Report Time Step ......... 00:01:00
  Wet Time Step ............ 00:01:00
  Dry Time Step ............ 00:01:00
  Routing Time Step ........ 5.00 sec
  Variable Time Step ....... YES
  Maximum Trials ........... 8
  Number of Threads ........ 4
  Head Tolerance ........... 0.001500 m
  
  
  **************************        Volume         Depth
  Runoff Quantity Continuity     hectare-m            mm
  **************************     ---------       -------
  Total Precipitation ......         2.901         6.352
  Evaporation Loss .........         0.000         0.000
  Infiltration Loss ........         0.615         1.347
  Surface Runoff ...........         1.715         3.756
  Final Storage ............         0.571         1.251
  Continuity Error (%) .....        -0.021
  
  
  **************************           COD            SS            TN            TP         NH4-N
  Runoff Quality Continuity             kg            kg            kg            kg            kg
  **************************    ----------    ----------    ----------    ----------    ----------
  Initial Buildup ..........     41378.656     70582.865      1804.177       168.684      1032.807
  Surface Buildup ..........        11.899        15.979         2.214         0.204         1.308
  Wet Deposition ...........         0.000         0.000         0.000         0.000         0.000
  Sweeping Removal .........         0.000         0.000         0.000         0.000         0.000
  Infiltration Loss ........        30.172        52.590         0.599         0.040         0.281
  BMP Removal ..............         0.000         0.000         0.000         0.000         0.000
  Surface Runoff ...........      1018.427      1730.730        20.664         1.339         9.738
  Remaining Buildup ........     40341.658     68815.016      1785.121       167.509      1024.093
  Continuity Error (%) .....         0.001         0.001         0.000         0.000         0.000
  
  
  **************************        Volume        Volume
  Flow Routing Continuity        hectare-m      10^6 ltr
  **************************     ---------     ---------
  Dry Weather Inflow .......         0.616         6.165
  Wet Weather Inflow .......         1.714        17.145
  Groundwater Inflow .......         0.000         0.000
  RDII Inflow ..............         0.000         0.000
  External Inflow ..........         0.102         1.024
  External Outflow .........         1.780        17.796
  Flooding Loss ............         0.372         3.720
  Evaporation Loss .........         0.000         0.000
  Exfiltration Loss ........         0.000         0.000
  Initial Stored Volume ....         0.076         0.761
  Final Stored Volume ......         0.480         4.797
  Continuity Error (%) .....        -4.854
  
  
  **************************           COD            SS            TN            TP         NH4-N
  Quality Routing Continuity            kg            kg            kg            kg            kg
  **************************    ----------    ----------    ----------    ----------    ----------
  Dry Weather Inflow .......      1541.201      2465.922       147.955        18.494        92.472
  Wet Weather Inflow .......      1018.019      1730.075        20.655         1.338         9.734
  Groundwater Inflow .......         0.000         0.000         0.000         0.000         0.000
  RDII Inflow ..............         0.000         0.000         0.000         0.000         0.000
  External Inflow ..........       183.418       293.469        17.608         2.201        11.005
  External Outflow .........      2142.567      3491.415       166.976        20.248       102.725
  Flooding Loss ............       193.129       328.164         4.736         0.382         2.436
  Exfiltration Loss ........         0.000         0.000         0.000         0.000         0.000
  Mass Reacted .............         0.000         0.000         0.000         0.000         0.000
  Initial Stored Mass ......         0.000         0.000         0.000         0.000         0.000
  Final Stored Mass ........       267.025       436.863         9.225         0.874         5.076
  Continuity Error (%) .....         5.102         5.190         2.837         2.405         2.628
  
  
  *************************
  Highest Continuity Errors
  *************************
  Node YS02001774 (42.02%)
  Node JK-storage (-22.60%)
  Node HS02004842 (22.15%)
  Node YS02001884 (19.14%)
  Node YSB1171 (5.23%)
  
  
  ***************************
  Time-Step Critical Elements
  ***************************
  Link WS02006252WS02006251 (68.04%)
  Link WS02006280WS02006229 (9.44%)
  Link YS02001793JiankangQianchi (6.18%)
  Link WS02006238WS02006235 (4.82%)
  Link WS02004404WS02004405 (3.17%)
  
  
  ********************************
  Highest Flow Instability Indexes
  ********************************
  Link WS02006113WS02006111 (47)
  Link WS02006111WS02006112 (26)
  Link YS02001779YS02001774 (23)
  Link YS02001774YS02001770 (22)
  Link YS02001619YS02001622 (19)
  
  
  *************************
  Routing Time Step Summary
  *************************
  Minimum Time Step           :     0.45 sec
  Average Time Step           :     1.15 sec
  Maximum Time Step           :     5.00 sec
  Percent in Steady State     :    -0.00
  Average Iterations per Step :     3.72
  Percent Not Converging      :    15.36
  
  
  ***************************
  Subcatchment Runoff Summary
  ***************************
  
  ------------------------------------------------------------------------------------------------------------------------------
                            Total      Total      Total      Total     Imperv       Perv      Total       Total     Peak  Runoff
                           Precip      Runon       Evap      Infil     Runoff     Runoff     Runoff      Runoff   Runoff   Coeff
  Subcatchment                 mm         mm         mm         mm         mm         mm         mm    10^6 ltr      LPS
  ------------------------------------------------------------------------------------------------------------------------------
  sub0                       6.35       0.00       0.00       0.44       5.86       0.00       5.86        0.00     0.78   0.923
  sub1                       6.35       0.00       0.00       0.70       5.56       0.00       5.56        0.04     5.62   0.876
  sub2                       6.35       0.00       0.00       2.35       3.92       0.00       3.92        0.04     5.42   0.617
  sub3                       6.35       0.00       0.00       2.35       3.88       0.00       3.88        0.09    12.41   0.612
  sub4                       6.35       0.00       0.00       0.70       5.42       0.00       5.42        0.11    15.14   0.853
  sub5                       6.35       0.00       0.00       0.44       5.81       0.00       5.81        0.07    10.01   0.915
  sub7                       6.35       0.00       0.00       0.57       5.72       0.00       5.72        0.02     3.02   0.900
  sub8                       6.35       0.00       0.00       0.57       5.71       0.00       5.71        0.04     5.65   0.899
  sub9                       6.35       0.00       0.00       0.57       5.71       0.00       5.71        0.03     4.24   0.898
  sub10                      6.35       0.00       0.00       0.51       5.76       0.00       5.76        0.06     9.71   0.907
  sub11                      6.35       0.00       0.00       0.51       5.78       0.00       5.78        0.07    10.43   0.909
  sub12                      6.35       0.00       0.00       0.83       5.48       0.00       5.48        0.05     7.62   0.863
  sub14                      6.35       0.00       0.00       0.57       5.71       0.00       5.71        0.05     8.38   0.898
  sub15                      6.35       0.00       0.00       1.91       4.39       0.00       4.39        0.08    11.59   0.690
  sub16                      6.35       0.00       0.00       2.10       4.22       0.00       4.22        0.04     6.98   0.664
  sub17                      6.35       0.00       0.00       2.03       4.28       0.00       4.28        0.04     5.78   0.673
  sub22                      6.35       0.00       0.00       2.73       3.58       0.00       3.58        0.23    35.24   0.564
  sub23                      6.35       0.00       0.00       2.35       3.96       0.00       3.96        0.19    29.51   0.623
  sub60                      6.35       0.00       0.00       0.76       4.14       0.00       4.14        1.25   118.99   0.651
  sub61                      6.35       0.00       0.00       1.08       4.33       0.00       4.33        1.34   142.56   0.682
  sub62                      6.35       0.00       0.00       0.51       4.67       0.00       4.67        1.44   148.28   0.736
  sub63                      6.35       0.00       0.00       1.84       3.83       0.00       3.83        1.16   129.12   0.603
  sub64                      6.35       0.00       0.00       0.95       3.96       0.00       3.96        1.20   113.25   0.623
  sub65                      6.35       0.00       0.00       0.83       4.02       0.00       4.02        1.23   115.13   0.632
  sub66                      6.35       0.00       0.00       1.84       3.43       0.00       3.43        1.05   102.81   0.540
  sub67                      6.35       0.00       0.00       0.51       5.05       0.00       5.05        1.56   177.67   0.795
  sub68                      6.35       0.00       0.00       0.89       4.59       0.00       4.59        1.41   154.75   0.722
  sub69                      6.35       0.00       0.00       0.95       4.87       0.00       4.87        1.14   137.55   0.766
  sub70                      6.35       4.97       0.00       3.85       6.20       0.00       6.21        1.42   135.16   0.548
  sub71                      6.35       0.00       0.00       0.51       4.50       0.00       4.50        1.06   105.24   0.709
  sub72                      6.35       0.00       0.00       0.44       3.33       0.00       3.33        0.68    52.30   0.524
  1                          6.35       6.04       0.00       1.37       6.50       1.13       7.63        1.79   134.35   0.616
  2                          6.35       0.00       0.00       3.02       1.46       0.39       1.85        0.74    85.38   0.291
  
  
  ****************************
  Subcatchment Washoff Summary
  ****************************
  
  ------------------------------------------------------------------------------------------
                                 COD            SS            TN            TP         NH4-N
  Subcatchment                    kg            kg            kg            kg            kg
  ------------------------------------------------------------------------------------------
  sub0                         0.807         1.443         0.013         0.001         0.006
  sub1                         3.441         6.298         0.065         0.004         0.031
  sub2                         2.007         3.548         0.046         0.003         0.021
  sub3                         4.937         8.646         0.110         0.007         0.050
  sub4                         8.013        14.748         0.166         0.010         0.079
  sub5                         7.865        14.203         0.139         0.010         0.067
  sub7                         1.800         3.351         0.035         0.002         0.017
  sub8                         2.764         5.256         0.057         0.003         0.027
  sub9                         2.328         4.367         0.046         0.003         0.022
  sub10                        6.544        11.976         0.121         0.008         0.058
  sub11                        6.465        11.981         0.123         0.008         0.059
  sub12                        5.291         9.606         0.096         0.007         0.046
  sub14                        4.923         9.147         0.095         0.006         0.046
  sub15                        5.731        10.136         0.115         0.008         0.053
  sub16                        3.575         6.303         0.070         0.005         0.033
  sub17                        3.261         5.693         0.062         0.005         0.029
  sub22                       16.662        28.755         0.331         0.024         0.152
  sub23                       10.430        18.730         0.240         0.015         0.108
  sub60                       67.250       114.263         1.426         0.082         0.681
  sub61                       83.794       141.612         1.625         0.106         0.779
  sub62                       88.848       153.060         1.829         0.109         0.874
  sub63                       62.318       103.862         1.343         0.091         0.612
  sub64                       80.320       131.341         1.536         0.107         0.727
  sub65                       82.440       135.424         1.590         0.109         0.755
  sub66                       48.154        79.574         1.072         0.067         0.494
  sub67                      131.005       223.489         2.385         0.169         1.147
  sub68                       93.788       160.351         1.882         0.121         0.893
  sub69                       85.802       148.471         1.668         0.112         0.791
  sub70                      133.712       232.200         2.813         0.187         1.298
  sub71                       59.141       102.783         1.302         0.071         0.620
  sub72                       40.320        64.880         0.790         0.051         0.379
  1                           73.483       128.471         1.601         0.106         0.727
  2                           10.720        17.433         0.351         0.021         0.146
  ------------------------------------------------------------------------------------------
  System                    1237.941      2111.402        25.145         1.637        11.827
  
  
  ******************
  Node Depth Summary
  ******************
  
  ---------------------------------------------------------------------------------
                                 Average  Maximum  Maximum  Time of Max    Reported
                                   Depth    Depth      HGL   Occurrence   Max Depth
  Node                 Type       Meters   Meters   Meters  days hr:min      Meters
  ---------------------------------------------------------------------------------
  WS02001211           JUNCTION     0.72     0.80     5.63     0  04:49        0.80
  WS02001212           JUNCTION     0.43     0.51     5.57     0  04:48        0.51
  WS02001213           JUNCTION     0.68     0.76     5.52     0  04:48        0.76
  WS02003069           JUNCTION     0.49     0.59     5.17     0  04:47        0.59
  WS02003072           JUNCTION     0.55     0.65     5.02     0  04:48        0.65
  WS02003073           JUNCTION     0.33     0.40     4.46     0  04:49        0.40
  WS02003060           JUNCTION     0.43     0.52     5.45     0  04:47        0.52
  WS02003066           JUNCTION     0.25     0.30     5.85     0  04:42        0.30
  WS02003059           JUNCTION     0.73     0.81     5.50     0  04:47        0.81
  WS02003067           JUNCTION     0.61     0.70     6.02     0  04:42        0.70
  WS02004401           JUNCTION     0.71     0.86     6.86     0  04:15        0.86
  WS02004402           JUNCTION     0.74     0.89     6.85     0  04:15        0.89
  WS02004403           JUNCTION     0.76     0.90     6.83     0  04:16        0.90
  WS02004404           JUNCTION     0.83     0.97     6.82     0  04:16        0.97
  WS02004406           JUNCTION     0.84     0.96     6.79     0  04:16        0.96
  WS02004409           JUNCTION     0.53     0.68     6.45     0  04:41        0.68
  WS02004410           JUNCTION     0.55     0.69     6.41     0  04:41        0.69
  WS02004411           JUNCTION     0.56     0.70     6.38     0  04:41        0.70
  WS02004412           JUNCTION     0.58     0.70     6.34     0  04:42        0.70
  WS02004413           JUNCTION     0.74     0.86     6.33     0  04:42        0.86
  WS02004405           JUNCTION     0.83     0.96     6.81     0  04:16        0.96
  WS02006109           JUNCTION     0.79     1.00     7.62     0  04:09        0.99
  WS02006110           JUNCTION     0.78     0.94     7.52     0  04:09        0.94
  WS02006111           JUNCTION     0.23     0.29     7.00     0  04:14        0.29
  WS02006112           JUNCTION     0.88     1.08     6.96     0  05:55        1.08
  WS02006113           JUNCTION     0.36     0.46     7.36     0  04:13        0.46
  WS02006115           JUNCTION     0.60     0.76     6.90     0  04:15        0.76
  WS02006116           JUNCTION     0.68     0.84     6.88     0  04:15        0.84
  WS02006230           JUNCTION     0.78     1.13     7.87     0  04:09        1.12
  WS02006231           JUNCTION     0.53     0.88     8.00     0  04:09        0.87
  WS02006232           JUNCTION     0.68     1.07     8.11     0  04:09        1.06
  WS02006234           JUNCTION     0.62     1.08     8.24     0  04:09        1.08
  WS02006235           JUNCTION     0.66     1.18     8.34     0  04:09        1.16
  WS02006238           JUNCTION     0.69     1.20     8.34     0  04:30        1.19
  WS02006240           JUNCTION     0.60     1.14     8.43     0  04:11        1.13
  WS02006242           JUNCTION     0.66     1.22     8.49     0  04:36        1.22
  WS02006243           JUNCTION     0.55     1.15     8.57     0  04:08        1.13
  WS02006245           JUNCTION     0.53     1.14     8.63     0  04:08        1.12
  WS02006247           JUNCTION     0.54     1.16     8.66     0  04:08        1.13
  WS02006248           JUNCTION     0.49     1.10     8.68     0  04:08        1.08
  WS02006249           JUNCTION     0.51     1.09     8.69     0  04:08        1.09
  WS02006239           JUNCTION     0.65     1.18     8.39     0  05:49        1.17
  WS02006251           JUNCTION     0.50     1.25     8.92     0  04:08        1.20
  WS02006252           JUNCTION     0.35     0.80     9.04     0  04:08        0.74
  WS02006253           JUNCTION     0.53     1.33     8.98     0  04:08        1.24
  WS02006256           JUNCTION     1.51     2.35     9.28     0  00:00        2.35
  WS02004138           JUNCTION     0.16     0.20     7.45     0  00:00        0.19
  WS02004139           JUNCTION     0.66     0.74     5.65     0  04:50        0.74
  WS02004407           JUNCTION     0.24     0.30     6.61     0  04:16        0.30
  WS02006228           JUNCTION     0.79     1.04     7.69     0  04:10        1.04
  WS02006229           JUNCTION     0.77     1.04     7.73     0  04:09        1.03
  WS02006280           JUNCTION     0.05     0.13     8.40     0  02:27        0.13
  WS02006284           JUNCTION     0.35     0.45     8.85     0  02:27        0.45
  WS02006287           JUNCTION     0.07     0.18     9.14     0  02:27        0.18
  WSF200               JUNCTION     0.23     0.31     5.54     0  06:00        0.31
  HS02004901           JUNCTION     0.11     0.20    10.02     0  02:25        0.20
  HS02004881           JUNCTION     0.01     0.02     9.05     0  02:26        0.02
  HS02004876           JUNCTION     0.03     0.09     9.12     0  02:25        0.09
  HS02004870           JUNCTION     0.01     0.03     9.32     0  02:26        0.03
  HS02004862           JUNCTION     0.01     0.04     9.43     0  02:27        0.04
  HS02004856           JUNCTION     0.07     0.10     9.53     0  02:26        0.10
  HS02004852           JUNCTION     0.01     0.02     9.54     0  02:27        0.02
  HS02004848           JUNCTION     0.01     0.02     9.62     0  02:25        0.02
  HS02004842           JUNCTION     0.33     0.35     9.62     0  02:25        0.35
  HS02004837           JUNCTION     0.03     0.04     9.62     0  02:25        0.04
  HS02004830           JUNCTION     0.04     0.06     9.53     0  02:26        0.06
  HS02004824           JUNCTION     0.02     0.04     9.44     0  02:27        0.04
  HS02004817           JUNCTION     0.42     0.51     9.35     0  02:27        0.51
  HS02004807           JUNCTION     0.11     0.18     9.35     0  02:27        0.18
  HS02004802           JUNCTION     0.15     0.22     9.35     0  02:27        0.22
  HS02004799           JUNCTION     0.09     0.22     9.43     0  02:25        0.22
  HS02004792           JUNCTION     0.02     0.08     9.60     0  02:25        0.08
  HS02004788           JUNCTION     0.02     0.06     9.96     0  02:26        0.06
  HS02004785           JUNCTION     0.03     0.11    10.01     0  02:26        0.11
  HS02004777           JUNCTION     0.13     0.22    10.02     0  02:25        0.22
  HS02004770           JUNCTION     0.10     0.19    10.02     0  02:25        0.19
  HS02004480           JUNCTION     0.06     0.17     9.41     0  02:26        0.17
  HS02004479           JUNCTION     0.10     0.20     9.41     0  02:26        0.20
  HS02004478           JUNCTION     0.05     0.11     9.33     0  02:27        0.11
  YS02001745           JUNCTION     0.62     0.85     8.36     0  03:58        0.85
  YS02001748           JUNCTION     1.02     1.29     8.37     0  04:01        1.28
  YS02001751           JUNCTION     1.20     1.50     8.38     0  04:01        1.49
  YS02001754           JUNCTION     1.45     1.78     8.38     0  04:01        1.76
  YS02001762           JUNCTION     1.65     1.99     8.39     0  04:03        1.98
  YS02001765           JUNCTION     1.61     1.95     8.40     0  03:36        1.92
  YS02001767           JUNCTION     1.57     1.91     8.40     0  03:36        1.88
  YS02001770           JUNCTION     1.56     1.91     8.40     0  03:36        1.88
  YS02001774           JUNCTION     1.63     1.97     8.39     0  03:36        1.95
  YS02001779           JUNCTION     1.38     1.68     8.37     0  03:32        1.68
  YS02001882           JUNCTION     0.31     0.56     7.28     0  03:02        0.56
  YS02001884           JUNCTION     0.40     0.66     7.28     0  03:03        0.66
  YS02001759           JUNCTION     1.69     2.03     8.39     0  04:03        2.01
  YS02001887           JUNCTION     0.48     0.74     7.28     0  03:03        0.74
  YS02001890           JUNCTION     0.51     0.77     7.28     0  03:02        0.77
  YS02001898           JUNCTION     0.28     0.53     7.26     0  03:03        0.53
  YS02001901           JUNCTION     0.40     0.65     7.26     0  03:02        0.65
  YS02001904           JUNCTION     0.38     0.63     7.26     0  03:02        0.63
  YS02001907           JUNCTION     0.71     0.97     7.26     0  03:02        0.97
  YS02001910           JUNCTION     0.50     0.75     7.26     0  03:02        0.75
  YS02001915           JUNCTION     0.30     0.54     7.26     0  03:02        0.54
  YS02001918           JUNCTION     0.09     0.19     7.26     0  03:03        0.19
  YS02001619           JUNCTION     1.16     1.61     8.54     0  03:05        1.46
  YS02001629           JUNCTION     1.51     1.85     8.40     0  03:30        1.84
  YS02001641           JUNCTION     1.62     1.95     8.38     0  03:30        1.93
  YS02001644           JUNCTION     1.63     1.92     8.35     0  03:29        1.92
  YS02001652           JUNCTION     1.47     1.93     8.53     0  03:05        1.81
  YS02001655           JUNCTION     1.23     2.02     8.87     0  03:05        1.57
  YS02001920           JUNCTION     0.19     0.27     7.28     0  03:03        0.27
  YS02001923           JUNCTION     0.07     0.11     7.37     0  03:02        0.11
  YS02001926           JUNCTION     0.16     0.21     7.66     0  03:02        0.21
  YS02001929           JUNCTION     0.08     0.11     7.80     0  03:01        0.11
  YS02001658           JUNCTION     0.96     2.07     9.21     0  03:05        1.30
  YS02001661           JUNCTION     0.73     1.12     8.52     0  04:03        1.06
  YS02001664           JUNCTION     0.28     0.55     8.48     0  04:04        0.54
  YS02001622           JUNCTION     1.18     1.51     8.42     0  03:38        1.49
  YS02001633           JUNCTION     1.61     1.96     8.42     0  03:38        1.93
  YS02001649           JUNCTION     1.66     2.01     8.40     0  04:03        1.99
  YS02001757           JUNCTION     1.79     2.13     8.39     0  04:03        2.11
  YS02001895           JUNCTION     0.27     0.52     7.27     0  03:02        0.52
  YS02001625           JUNCTION     1.47     1.78     8.38     0  03:29        1.78
  YS02163301           JUNCTION     1.55     1.90     8.41     0  03:38        1.87
  YS02163601           JUNCTION     1.66     2.01     8.41     0  03:30        1.98
  YS02164001           JUNCTION     1.60     1.95     8.40     0  03:30        1.91
  YS02001647           JUNCTION     1.45     1.77     8.38     0  04:03        1.76
  YSB1154              JUNCTION     0.24     0.35     9.41     0  02:26        0.35
  YSB6556              JUNCTION     0.13     0.24     9.41     0  02:26        0.24
  YSB1174              JUNCTION     0.19     0.30     9.41     0  02:26        0.30
  YSB1171              JUNCTION     0.39     0.50     9.41     0  02:26        0.50
  YS02006553           JUNCTION     0.72     0.97     7.26     0  03:02        0.97
  YS02006561           JUNCTION     0.15     0.29     6.95     0  03:05        0.29
  YS02006556           JUNCTION     0.69     0.94     7.25     0  03:04        0.94
  YS02006558           JUNCTION     0.73     0.99     7.26     0  03:05        0.98
  YS02001783           JUNCTION     0.28     0.75     6.89     0  02:50        0.73
  YS02001784           JUNCTION     0.31     0.84     6.91     0  02:51        0.83
  YS02001786           JUNCTION     0.27     0.79     6.82     0  02:51        0.78
  YS02001788           JUNCTION     0.22     0.88     6.85     0  02:50        0.77
  YS02001790           JUNCTION     0.28     1.96     7.60     0  03:45        1.05
  YS02001791           JUNCTION     0.24     2.09     7.56     0  03:44        1.17
  YS02001793           JUNCTION     0.30     2.05     6.88     0  03:44        1.79
  WSC                  OUTFALL      0.33     0.40     1.07     0  04:49        0.40
  JK-storage           STORAGE      2.08     5.80     6.60     0  02:49        5.80
  CC-storage           STORAGE      1.06     1.36     8.36     0  05:28        1.36
  XR-storage           STORAGE      2.28     6.13     4.13     0  05:57        6.13
  
  
  *******************
  Node Inflow Summary
  *******************
  
  -------------------------------------------------------------------------------------------------
                                  Maximum  Maximum                  Lateral       Total        Flow
                                  Lateral    Total  Time of Max      Inflow      Inflow     Balance
                                   Inflow   Inflow   Occurrence      Volume      Volume       Error
  Node                 Type           LPS      LPS  days hr:min    10^6 ltr    10^6 ltr     Percent
  -------------------------------------------------------------------------------------------------
  WS02001211           JUNCTION      7.35   389.18     0  06:37       0.207        9.01       0.457
  WS02001212           JUNCTION      0.00   390.74     0  06:37           0        8.97       0.283
  WS02001213           JUNCTION      0.00   392.21     0  06:38           0        8.95       0.328
  WS02003069           JUNCTION      0.32   953.56     0  04:47     0.00902        17.9       0.215
  WS02003072           JUNCTION      0.00   953.54     0  04:48           0        17.8       0.254
  WS02003073           JUNCTION      1.82   955.35     0  04:48      0.0514        17.8       0.297
  WS02003060           JUNCTION     16.53   953.25     0  04:47       0.466        17.9       0.201
  WS02003066           JUNCTION      0.00   549.36     0  04:42           0        8.59       0.060
  WS02003059           JUNCTION      0.00   394.41     0  06:38           0        8.93       0.465
  WS02003067           JUNCTION      0.00   549.36     0  04:42           0         8.6       0.121
  WS02004401           JUNCTION      0.00   552.18     0  04:14           0        8.86       0.263
  WS02004402           JUNCTION      0.00   551.55     0  04:14           0        8.83       0.246
  WS02004403           JUNCTION      0.00   551.38     0  04:15           0        8.81       0.222
  WS02004404           JUNCTION      0.16   551.17     0  04:15     0.00457         8.8       0.165
  WS02004406           JUNCTION      0.00   551.49     0  04:16           0        8.76       0.405
  WS02004409           JUNCTION      0.00   550.97     0  04:16           0        8.72       0.221
  WS02004410           JUNCTION      0.00   549.52     0  04:39           0         8.7       0.247
  WS02004411           JUNCTION      0.00   549.42     0  04:39           0        8.68       0.251
  WS02004412           JUNCTION      0.00   549.39     0  04:41           0        8.66       0.267
  WS02004413           JUNCTION      0.00   549.38     0  04:42           0        8.63       0.389
  WS02004405           JUNCTION      0.04   551.21     0  04:16     0.00107        8.78       0.246
  WS02006109           JUNCTION      1.23   557.00     0  04:09      0.0347        8.95       0.229
  WS02006110           JUNCTION      0.00   556.15     0  04:10           0        8.93       0.221
  WS02006111           JUNCTION      0.00   577.75     0  04:10           0         8.9       0.054
  WS02006112           JUNCTION      5.78   559.89     0  04:14      0.0367        8.93       0.360
  WS02006113           JUNCTION      0.00   557.03     0  04:10           0        8.91       0.117
  WS02006115           JUNCTION      0.00   560.97     0  04:14           0         8.9       0.258
  WS02006116           JUNCTION      0.00   553.79     0  04:14           0        8.88       0.221
  WS02006230           JUNCTION     10.28   532.73     0  05:53        0.29        7.77       0.147
  WS02006231           JUNCTION      0.00   522.33     0  05:53           0        7.49       0.195
  WS02006232           JUNCTION      0.00   522.25     0  05:53           0        7.51       0.228
  WS02006234           JUNCTION      0.00   522.74     0  05:52           0        7.52       0.118
  WS02006235           JUNCTION      0.00   523.37     0  06:10           0        7.62       0.136
  WS02006238           JUNCTION      0.00   419.20     0  06:30           0        4.68       0.181
  WS02006240           JUNCTION      0.00   417.68     0  06:30           0        4.63       0.273
  WS02006242           JUNCTION      0.00   417.36     0  06:30           0        4.61       0.320
  WS02006243           JUNCTION      0.00   416.86     0  06:30           0        4.59       0.163
  WS02006245           JUNCTION      0.00   416.19     0  06:30           0        4.59       0.174
  WS02006247           JUNCTION      0.00   416.18     0  04:50           0        4.59       0.150
  WS02006248           JUNCTION      0.00   416.57     0  04:50           0        4.59       0.099
  WS02006249           JUNCTION      0.00   420.32     0  07:30           0        4.82       0.186
  WS02006239           JUNCTION      0.00   418.79     0  06:30           0        4.66       0.230
  WS02006251           JUNCTION      0.08   408.87     0  06:30     0.00217        4.88       0.172
  WS02006252           JUNCTION      0.00   400.00     0  03:30           0        4.62       0.011
  WS02006253           JUNCTION      0.78    85.34     0  07:28     0.00475       0.262       1.604
  WS02006256           JUNCTION      0.00   983.00     0  03:00           0        5.78      -0.015
  WS02004138           JUNCTION      0.00   380.00     0  00:00           0        8.83       0.069
  WS02004139           JUNCTION      0.32   395.85     0  00:00     0.00905        8.84       0.525
  WS02004407           JUNCTION      0.00   551.11     0  04:16           0        8.73       0.096
  WS02006228           JUNCTION      0.00   555.31     0  04:10           0        8.93       0.178
  WS02006229           JUNCTION      0.00   552.61     0  04:10           0        8.94       0.147
  WS02006280           JUNCTION      0.00   157.44     0  02:27           0        1.19       0.006
  WS02006284           JUNCTION      0.10   157.44     0  02:27      0.0027        1.19       0.078
  WS02006287           JUNCTION      0.00   157.35     0  02:27           0        1.19       0.058
  WSF200               JUNCTION      0.00   549.37     0  04:42           0        8.58       0.058
  HS02004901           JUNCTION      6.98     6.98     0  02:23      0.0441      0.0444       4.128
  HS02004881           JUNCTION      3.02    30.59     0  02:26      0.0193       0.202       0.084
  HS02004876           JUNCTION      5.62    27.61     0  02:25       0.037       0.183       0.292
  HS02004870           JUNCTION      5.65    22.05     0  02:25      0.0365       0.146       0.074
  HS02004862           JUNCTION      5.62    16.51     0  02:26      0.0422        0.11       0.154
  HS02004856           JUNCTION      4.24    10.94     0  02:25      0.0274      0.0692       2.133
  HS02004852           JUNCTION      0.00     6.79     0  02:25           0      0.0418       0.127
  HS02004848           JUNCTION     12.41    12.41     0  02:25      0.0874      0.0874       0.052
  HS02004842           JUNCTION      0.00     5.63     0  02:36           0      0.0587      28.455
  HS02004837           JUNCTION     16.06    21.60     0  02:25       0.243       0.288       0.283
  HS02004830           JUNCTION      0.15    21.74     0  02:26     0.00423       0.279       0.444
  HS02004824           JUNCTION     15.19    36.93     0  02:26       0.114       0.392       0.138
  HS02004817           JUNCTION      0.60    37.52     0  02:27      0.0169       0.408       4.257
  HS02004807           JUNCTION     10.43    47.64     0  02:26      0.0671       0.459       0.956
  HS02004802           JUNCTION      0.00    47.64     0  02:28           0       0.458       0.871
  HS02004799           JUNCTION      8.38    92.69     0  02:25      0.0543       0.637       0.444
  HS02004792           JUNCTION     35.52    84.38     0  02:24       0.234       0.583       0.071
  HS02004788           JUNCTION     13.26    49.21     0  02:25       0.122        0.35       0.112
  HS02004785           JUNCTION      0.15    36.14     0  02:25     0.00423       0.229       0.213
  HS02004777           JUNCTION      0.03    36.15     0  02:24    0.000846        0.23       2.311
  HS02004770           JUNCTION     29.51    36.34     0  02:23       0.189       0.231       1.355
  HS02004480           JUNCTION      0.00   109.85     0  02:26           0       0.747       0.130
  HS02004479           JUNCTION      0.00    17.35     0  02:27           0       0.122       0.602
  HS02004478           JUNCTION      0.00   157.35     0  02:26           0        1.19       0.030
  YS02001745           JUNCTION    119.00   215.78     0  03:08        1.25        1.26       0.536
  YS02001748           JUNCTION      0.04   314.03     0  03:07     0.00127        1.25       1.630
  YS02001751           JUNCTION      0.01   245.43     0  02:55     0.00031        1.23       1.884
  YS02001754           JUNCTION      0.26   179.94     0  02:53     0.00733        1.21       2.060
  YS02001762           JUNCTION      0.00   167.10     0  03:10           0        1.36       1.578
  YS02001765           JUNCTION      0.00   163.36     0  02:59           0        1.36       1.823
  YS02001767           JUNCTION      0.54   161.06     0  03:00      0.0151        1.38       2.650
  YS02001770           JUNCTION    148.44   154.92     0  03:00        1.44        1.45       2.227
  YS02001774           JUNCTION      0.00    32.21     0  01:48           0      0.0603      72.462
  YS02001779           JUNCTION      0.01    15.93     0  03:36    0.000141      0.0254     148.013
  YS02001882           JUNCTION      0.00     2.89     0  01:15           0     0.00703      36.002
  YS02001884           JUNCTION      0.00     7.49     0  01:37           0      0.0275      23.668
  YS02001759           JUNCTION    142.60   310.96     0  02:59        1.34        2.66       0.868
  YS02001887           JUNCTION    178.12   178.12     0  03:01        1.57        1.59       0.479
  YS02001890           JUNCTION      0.00   176.49     0  03:00           0        1.56       0.534
  YS02001898           JUNCTION      0.00   175.06     0  03:03           0        1.54       0.159
  YS02001901           JUNCTION      0.00   177.15     0  03:05           0        1.54       0.391
  YS02001904           JUNCTION      0.00   180.02     0  03:05           0        1.54       0.359
  YS02001907           JUNCTION      0.00   351.32     0  03:05           0        3.34       0.685
  YS02001910           JUNCTION      0.00   164.59     0  03:04           0        1.81       0.592
  YS02001915           JUNCTION    105.26   159.42     0  03:03        1.06        1.82       0.275
  YS02001918           JUNCTION      0.00    55.77     0  03:04           0       0.756       0.186
  YS02001619           JUNCTION    102.81   102.81     0  03:01        1.05        1.05       1.125
  YS02001629           JUNCTION      0.00   218.81     0  02:52           0       0.972       2.942
  YS02001641           JUNCTION      0.00   245.58     0  03:04           0        2.11       1.009
  YS02001644           JUNCTION    113.29   355.92     0  03:04         1.2        3.34       0.779
  YS02001652           JUNCTION      0.00   184.46     0  03:04           0        1.12       2.172
  YS02001655           JUNCTION      0.15   307.43     0  02:53     0.00434        1.14       1.998
  YS02001920           JUNCTION      2.87    55.04     0  03:02      0.0809       0.758       0.309
  YS02001923           JUNCTION      0.04    52.17     0  03:02     0.00106       0.678       0.055
  YS02001926           JUNCTION      0.05    52.31     0  03:01     0.00147       0.679       0.385
  YS02001929           JUNCTION     52.30    52.30     0  03:01       0.678       0.678       0.054
  YS02001658           JUNCTION      0.00   502.62     0  03:05           0         1.2       1.427
  YS02001661           JUNCTION      0.00   442.43     0  03:35           0        1.49       0.278
  YS02001664           JUNCTION    129.12   363.72     0  03:34        1.16        1.45       0.107
  YS02001622           JUNCTION      0.00   156.54     0  02:52           0        1.04       3.066
  YS02001633           JUNCTION    115.33   244.95     0  03:04        1.24        2.16       1.503
  YS02001649           JUNCTION      0.00   492.54     0  03:02           0        3.87       0.968
  YS02001757           JUNCTION      0.00   871.91     0  03:02           0        7.57       1.229
  YS02001895           JUNCTION      0.00   175.41     0  03:01           0        1.55       0.264
  YS02001625           JUNCTION      0.00   219.96     0  02:52           0        1.01       3.934
  YS02163301           JUNCTION      0.00   133.23     0  03:04           0        0.95       2.578
  YS02163601           JUNCTION      0.11   245.36     0  03:04      0.0031        2.13       1.433
  YS02164001           JUNCTION      0.00   245.23     0  03:04           0        2.11       0.946
  YS02001647           JUNCTION      0.00   355.63     0  03:04           0        2.85       0.987
  YSB1154              JUNCTION     10.01    10.01     0  02:24      0.0658      0.0665       2.223
  YSB6556              JUNCTION      0.00     9.94     0  02:24           0      0.0673       1.891
  YSB1174              JUNCTION      7.62     7.62     0  02:23      0.0479      0.0483       2.731
  YSB1171              JUNCTION      0.00    18.22     0  01:11           0       0.121       5.520
  YS02006553           JUNCTION      0.00   352.15     0  03:05           0        3.33       0.443
  YS02006561           JUNCTION      0.00   532.13     0  03:05           0        4.71       0.012
  YS02006556           JUNCTION      0.00   352.31     0  03:05           0        3.33       0.321
  YS02006558           JUNCTION    155.63   511.55     0  03:05        1.44        4.74       0.101
  YS02001783           JUNCTION      0.00   493.34     0  03:04           0        4.71       0.037
  YS02001784           JUNCTION      1.06   495.91     0  02:59      0.0299        4.74       0.055
  YS02001786           JUNCTION      0.06   514.93     0  02:58     0.00159        4.74       0.057
  YS02001788           JUNCTION      0.07   571.48     0  02:58       0.002        4.74       0.034
  YS02001790           JUNCTION      0.15   622.87     0  02:57     0.00437        4.74       0.022
  YS02001791           JUNCTION      0.00   673.54     0  02:58           0        4.74       0.022
  YS02001793           JUNCTION      0.00   708.86     0  02:58           0        4.75      -0.049
  WSC                  OUTFALL       0.00   955.33     0  04:49           0        17.8       0.000
  JK-storage           STORAGE       0.00   732.46     0  03:01           0         4.9     -18.434
  CC-storage           STORAGE       0.00   872.00     0  03:02           0        7.46       0.747
  XR-storage           STORAGE     419.73   419.73     0  03:01        8.17        8.77      -0.717
  
  
  **********************
  Node Surcharge Summary
  **********************
  
  Surcharging occurs when water rises above the top of the highest conduit.
  ---------------------------------------------------------------------
                                               Max. Height   Min. Depth
                                   Hours       Above Crown    Below Rim
  Node                 Type      Surcharged         Meters       Meters
  ---------------------------------------------------------------------
  WS02006109           JUNCTION        2.92          0.180        1.640
  WS02006110           JUNCTION        1.06          0.030        1.820
  WS02006112           JUNCTION        1.44          0.079        1.601
  WS02006230           JUNCTION        0.94          0.048        1.522
  WS02006231           JUNCTION        1.40          0.169        1.361
  WS02006232           JUNCTION        2.64          0.374        1.106
  WS02006234           JUNCTION        2.00          0.361        0.879
  WS02006235           JUNCTION        2.34          0.466        0.824
  WS02006238           JUNCTION        2.47          0.480        0.950
  WS02006240           JUNCTION        2.08          0.429        0.961
  WS02006242           JUNCTION        2.32          0.493        0.327
  WS02006243           JUNCTION        2.01          0.438        0.332
  WS02006245           JUNCTION        1.96          0.433        0.417
  WS02006247           JUNCTION        2.01          0.448        0.312
  WS02006248           JUNCTION        1.72          0.375        0.005
  WS02006249           JUNCTION        1.82          0.390        0.000
  WS02006239           JUNCTION        2.16          0.442        0.848
  WS02006251           JUNCTION        0.99          0.222        0.958
  WS02006252           JUNCTION        2.75          0.397        0.703
  WS02006253           JUNCTION        1.02          0.293        2.187
  WS02006256           JUNCTION        6.90          2.050        0.000
  WS02006228           JUNCTION        2.78          0.213        1.987
  YS02001748           JUNCTION        3.61          0.210        0.980
  YS02001751           JUNCTION        4.85          0.496        0.704
  YS02001754           JUNCTION        5.15          0.726        0.424
  YS02001762           JUNCTION        5.51          0.994        0.156
  YS02001765           JUNCTION        5.46          0.947        0.153
  YS02001767           JUNCTION        5.42          0.911        0.119
  YS02001770           JUNCTION        5.38          0.879        0.041
  YS02001774           JUNCTION        5.49          0.971        0.079
  YS02001779           JUNCTION        5.09          0.680        0.000
  YS02001759           JUNCTION        5.55          1.028        0.182
  YS02001619           JUNCTION        4.80          0.610        0.000
  YS02001629           JUNCTION        4.83          0.470        0.000
  YS02001641           JUNCTION        5.48          0.946        0.154
  YS02001644           JUNCTION        5.48          0.920        0.000
  YS02001652           JUNCTION        5.22          0.903        0.227
  YS02001655           JUNCTION        4.89          1.020        0.180
  YS02001658           JUNCTION        3.73          1.066        0.234
  YS02001661           JUNCTION        0.01          0.050        1.340
  YS02001622           JUNCTION        4.86          0.515        0.105
  YS02001633           JUNCTION        5.44          0.941        0.119
  YS02001649           JUNCTION        5.52          1.012        0.038
  YS02001757           JUNCTION        5.71          1.130        0.080
  YS02001625           JUNCTION        5.29          0.780        0.000
  YS02163301           JUNCTION        5.40          0.897        0.133
  YS02163601           JUNCTION        5.52          1.015        0.065
  YS02164001           JUNCTION        5.45          0.946        0.154
  YS02001647           JUNCTION        5.26          0.771        0.129
  YS02001784           JUNCTION        0.01          0.039        1.451
  YS02001788           JUNCTION        0.01          0.075        1.405
  YS02001790           JUNCTION        0.44          1.157        0.000
  YS02001791           JUNCTION        0.50          1.291        0.629
  YS02001793           JUNCTION        0.74          1.049        1.551
  
  
  *********************
  Node Flooding Summary
  *********************
  
  Flooding refers to all water that overflows a node, whether it ponds or not.
  --------------------------------------------------------------------------
                                                             Total   Maximum
                                 Maximum   Time of Max       Flood    Ponded
                        Hours       Rate    Occurrence      Volume     Depth
  Node                 Flooded       LPS   days hr:min    10^6 ltr    Meters
  --------------------------------------------------------------------------
  WS02006249              0.93     92.79      0  04:08       0.214     0.000
  WS02006256              3.06    789.02      0  04:11       2.773     0.000
  YS02001779              0.43     14.99      0  03:36       0.004     0.000
  YS02001619              0.01     14.78      0  03:05       0.000     0.000
  YS02001629              0.01      5.27      0  03:31       0.000     0.000
  YS02001644              1.41    320.05      0  04:04       0.510     0.000
  YS02001625              0.07     22.64      0  03:31       0.001     0.000
  YS02001790              0.01    142.78      0  03:45       0.000     0.000
  JK-storage              0.30    381.51      0  02:50       0.216     0.000
  
  
  **********************
  Storage Volume Summary
  **********************
  
  --------------------------------------------------------------------------------------------------
                         Average     Avg  Evap Exfil       Maximum     Max    Time of Max    Maximum
                          Volume    Pcnt  Pcnt  Pcnt        Volume    Pcnt     Occurrence    Outflow
  Storage Unit           1000 m3    Full  Loss  Loss       1000 m3    Full    days hr:min        LPS
  --------------------------------------------------------------------------------------------------
  JK-storage               0.105      36     0     0         0.291     100       0  02:49     983.00
  CC-storage               2.947      19     0     0         3.779      24       0  05:28     400.00
  XR-storage               0.274      30     0     0         0.736      79       0  05:57     380.00
  
  
  ***********************
  Outfall Loading Summary
  ***********************
  
  ---------------------------------------------------------------------------------------------------------------------------------
                         Flow       Avg       Max       Total         Total         Total         Total         Total         Total
                         Freq      Flow      Flow      Volume           COD            SS            TN            TP         NH4-N
  Outfall Node           Pcnt       LPS       LPS    10^6 ltr            kg            kg            kg            kg            kg
  ---------------------------------------------------------------------------------------------------------------------------------
  WSC                   99.98    702.31    955.33      17.795      2142.715      3491.654       166.990        20.249       102.734
  ---------------------------------------------------------------------------------------------------------------------------------
  System                99.98    702.31    955.33      17.795      2142.715      3491.654       166.990        20.249       102.734
  
  
  ********************
  Link Flow Summary
  ********************
  
  -----------------------------------------------------------------------------
                                 Maximum  Time of Max   Maximum    Max/    Max/
                                  |Flow|   Occurrence   |Veloc|    Full    Full
  Link                 Type          LPS  days hr:min     m/sec    Flow   Depth
  -----------------------------------------------------------------------------
  WS02003066WSF200     CONDUIT    549.37     0  04:42      2.81    0.09    0.23
  WS02006287WS02006284 CONDUIT    157.34     0  02:27      1.48    0.07    0.19
  WS02006284WS02006280 CONDUIT    157.44     0  02:27      1.72    0.07    0.17
  WS02006280WS02006229 CONDUIT    157.44     0  02:27      2.76    0.03    0.13
  WS02006229WS02006228 CONDUIT    555.31     0  04:10      1.10    1.84    1.00
  WS02006256WS02006235 CONDUIT    288.92     0  00:00      4.23    3.06    1.00
  WS02006253WS02006251 CONDUIT     84.91     0  07:28      0.45    0.25    1.00
  WS02006252WS02006251 CONDUIT    401.05     0  06:11      3.19    1.47    1.00
  WS02006251WS02006249 CONDUIT    420.32     0  07:30      1.10    1.21    1.00
  WS02006249WS02006248 CONDUIT    416.57     0  04:50      1.14    2.28    1.00
  WS02006248WS02006247 CONDUIT    416.18     0  04:50      1.11    0.91    1.00
  WS02006247WS02006245 CONDUIT    416.19     0  06:30      1.08    3.30    1.00
  WS02006245WS02006243 CONDUIT    416.86     0  06:30      1.09    1.23    1.00
  WS02006243WS02006242 CONDUIT    417.36     0  06:30      1.08    0.89    1.00
  WS02006242WS02006240 CONDUIT    417.68     0  06:30      1.09    1.66    1.00
  WS02006240WS02006239 CONDUIT    418.79     0  06:30      1.09    1.32    1.00
  WS02006239WS02006238 CONDUIT    419.20     0  06:30      1.09    1.34    1.00
  WS02006238WS02006235 CONDUIT    419.95     0  06:30      1.45    0.94    1.00
  WS02006235WS02006234 CONDUIT    522.74     0  05:52      1.36    5.52    1.00
  WS02006234WS02006232 CONDUIT    522.25     0  05:53      1.39    1.06    1.00
  WS02006232WS02006231 CONDUIT    522.33     0  05:53      1.36    1.09    1.00
  WS02006231WS02006230 CONDUIT    522.45     0  05:53      1.36    7.92    1.00
  WS02006230WS02006229 CONDUIT    532.43     0  05:49      1.38   11.85    1.00
  WS02006228WS02006109 CONDUIT    555.77     0  04:09      1.11    2.43    1.00
  WS02006116WS02004401 CONDUIT    552.18     0  04:14      1.00    0.76    0.85
  WS02006115WS02006116 CONDUIT    553.79     0  04:14      1.02    0.71    0.77
  WS02006113WS02006111 CONDUIT    577.75     0  04:10      2.49    0.69    0.47
  WS02006112WS02006115 CONDUIT    560.97     0  04:14      0.77    0.33    0.88
  WS02006111WS02006112 CONDUIT    559.69     0  04:14      1.60    0.27    0.68
  WS02006110WS02006113 CONDUIT    557.03     0  04:10      1.31    0.51    0.79
  WS02006109WS02006110 CONDUIT    556.15     0  04:10      1.11    1.07    1.00
  WS02004411WS02004412 CONDUIT    549.39     0  04:41      0.93    0.78    0.70
  WS02004401WS02004402 CONDUIT    551.55     0  04:14      1.00    0.66    0.87
  WS02004413WS02003067 CONDUIT    549.36     0  04:42      1.12    0.24    0.60
  WS02004412WS02004413 CONDUIT    549.38     0  04:42      0.83    0.37    0.78
  WS02004410WS02004411 CONDUIT    549.42     0  04:39      0.95    0.75    0.69
  WS02004409WS02004410 CONDUIT    549.52     0  04:39      0.97    0.71    0.68
  WS02004407WS02004409 CONDUIT    550.97     0  04:16      1.47    0.20    0.49
  WS02004406WS02004407 CONDUIT    551.11     0  04:16      1.05    0.25    0.63
  WS02004405WS02004406 CONDUIT    551.49     0  04:16      1.10    1.09    0.96
  WS02004404WS02004405 CONDUIT    551.18     0  04:16      1.15    5.40    0.97
  WS02004403WS02004404 CONDUIT    551.01     0  04:15      0.98    0.40    0.94
  WS02004402WS02004403 CONDUIT    551.38     0  04:15      1.02    0.79    0.89
  WS02004139WS02001211 CONDUIT    381.83     0  06:37      0.90    0.48    0.60
  WS02004138WS02004139 CONDUIT    395.52     0  00:00      3.64    0.08    0.44
  WS02003067WS02003066 CONDUIT    549.36     0  04:42      1.22    0.18    0.42
  WS02001213WS02003059 CONDUIT    394.41     0  06:38      0.89    0.65    0.78
  WS02001212WS02001213 CONDUIT    392.21     0  06:38      1.32    0.61    0.48
  WS02001211WS02001212 CONDUIT    390.74     0  06:37      0.78    0.30    0.65
  WS02003072WS02003073 CONDUIT    953.53     0  04:48      1.73    2.06    0.49
  WS02003069WS02003072 CONDUIT    953.54     0  04:48      1.63    0.46    0.51
  WS02003060WS02003069 CONDUIT    953.24     0  04:47      1.87    0.37    0.46
  WS02003059WS02003060 CONDUIT    397.50     0  06:39      0.95    0.26    0.67
  HS02004901HS02004770 CONDUIT      6.87     0  02:24      0.07    0.03    0.28
  HS02004876HS02004881 CONDUIT     27.64     0  02:26      0.48    0.29    0.08
  HS02004870HS02004876 CONDUIT     22.04     0  02:26      0.34    0.01    0.09
  HS02004842HS02004848 CONDUIT      5.63     0  02:36      0.03    0.00    0.27
  HS02004837HS02004842 CONDUIT      5.71     0  03:02      0.42    0.00    0.28
  HS02004830HS02004837 CONDUIT     21.59     0  02:26      0.43    0.02    0.07
  HS02004824HS02004830 CONDUIT     21.73     0  02:26      0.46    0.03    0.07
  HS02004817HS02004824 CONDUIT     36.92     0  02:27      0.17    0.02    0.39
  HS02004770HS02004777 CONDUIT     36.12     0  02:24      0.23    0.07    0.30
  HS02004799HS02004480 CONDUIT     92.61     0  02:25      0.50    0.12    0.27
  HS02004792HS02004799 CONDUIT     84.35     0  02:25      0.57    0.05    0.21
  HS02004788HS02004792 CONDUIT     49.19     0  02:26      0.73    0.03    0.10
  HS02004785HS02004788 CONDUIT     36.08     0  02:26      0.43    0.27    0.12
  HS02004777HS02004785 CONDUIT     35.99     0  02:25      0.22    0.04    0.24
  HS02004480HS02004478 CONDUIT    109.85     0  02:26      0.84    0.46    0.19
  HS02004479HS02004480 CONDUIT     17.44     0  02:28      0.34    0.02    0.26
  HS02004862HS02004870 CONDUIT     16.49     0  02:27      0.43    0.02    0.05
  HS02004848HS02004852 CONDUIT      6.79     0  02:25      0.29    0.01    0.03
  HS02004856HS02004862 CONDUIT     10.92     0  02:26      0.31    0.01    0.05
  HS02004852HS02004856 CONDUIT      6.77     0  02:27      0.11    0.01    0.09
  HS02004802HS02004478 CONDUIT     47.71     0  02:29      0.29    0.04    0.23
  HS02004478WS02006287 CONDUIT    157.35     0  02:27      1.17    0.04    0.15
  HS02004817HS02004807 CONDUIT     37.58     0  02:28      0.11    0.02    0.49
  HS02004807HS02004802 CONDUIT     47.64     0  02:28      0.24    0.09    0.28
  YS02001759YS02001757 CONDUIT    313.27     0  02:59      0.40    0.22    1.00
  YS02001762YS02001759 CONDUIT    172.16     0  03:10      0.22    0.20    1.00
  YS02001765YS02001762 CONDUIT    167.10     0  03:10      0.31    0.16    1.00
  YS02001770YS02001767 CONDUIT    160.52     0  03:00      0.33    0.64    1.00
  YS02001774YS02001770 CONDUIT     32.21     0  01:48      0.30    0.02    1.00
  YS02001779YS02001774 CONDUIT     15.92     0  03:36      0.06    0.01    1.00
  YS02001649YS02001757 CONDUIT    495.00     0  03:02      0.63    0.30    1.00
  YS02001767YS02001765 CONDUIT    163.36     0  02:59      0.36    0.21    1.00
  YS02006561YS02001783 CONDUIT    493.34     0  03:04      1.99    0.26    0.63
  YS02001783YS02001784 CONDUIT    494.85     0  02:59      1.43    0.68    0.95
  YS02001784YS02001785 CONDUIT    514.88     0  02:58      1.56    1.20    0.99
  YS02001788YS02001790 CONDUIT    622.72     0  02:57      2.09    0.46    1.00
  YS02001790YS02001791 CONDUIT    673.54     0  02:58      2.47    0.73    1.00
  YS02001791YS02001793 CONDUIT    708.86     0  02:58      5.03    0.30    1.00
  YS02001910YS02001907 CONDUIT    167.79     0  03:05      0.49    0.09    0.86
  YS02001786YS02001788 CONDUIT    571.41     0  02:58      2.02    1.10    0.99
  YS02001915YS02001910 CONDUIT    164.59     0  03:04      0.61    0.08    0.65
  YS02001918YS02001915 CONDUIT     58.25     0  03:06      0.44    0.03    0.37
  YS02001923YS02001920 CONDUIT     52.17     0  03:02      0.54    0.02    0.19
  YS02001926YS02001923 CONDUIT     52.13     0  03:02      0.60    0.07    0.17
  YS02001929YS02001926 CONDUIT     52.25     0  03:01      0.65    0.02    0.16
  YS02001920YS02001918 CONDUIT     55.77     0  03:04      0.54    0.05    0.23
  YS02001629YS02163301 CONDUIT    133.23     0  03:04      0.17    0.16    1.00
  YS02001619YS02001622 CONDUIT    156.54     0  02:52      0.55    0.23    1.00
  YS02001622YS02001625 CONDUIT    219.96     0  02:52      0.41    0.12    1.00
  YS02001625YS02001629 CONDUIT    218.81     0  02:52      0.29    0.10    1.00
  YS02163301YS02001633 CONDUIT    133.16     0  03:04      0.17    0.13    1.00
  YS02163601YS02164001 CONDUIT    245.23     0  03:04      0.31    0.22    1.00
  YS02164001YS02001641 CONDUIT    245.58     0  03:04      0.31    0.34    1.00
  YS02001641YS02001644 CONDUIT    246.17     0  03:04      0.31    0.80    1.00
  YS02001647YS02001649 CONDUIT    355.22     0  03:04      0.45    0.19    1.00
  YS02006553YS02006556 CONDUIT    352.31     0  03:05      0.46    0.30    0.94
  YS02006556YS02006558 CONDUIT    365.07     0  03:05      0.47    0.29    0.96
  YSB6556YSB1171       CONDUIT      9.95     0  02:27      0.08    0.01    0.53
  YS02001907YS02006553 CONDUIT    352.15     0  03:05      0.39    0.41    1.00
  YS02006558YS02006561 CONDUIT    532.13     0  03:05      2.82    1.18    0.64
  YS02001633YS02163601 CONDUIT    245.25     0  03:04      0.31    0.26    1.00
  YS02001644YS02001647 CONDUIT    355.63     0  03:04      0.45    0.21    1.00
  YS02001745YS02001748 CONDUIT    313.99     0  03:07      1.37    0.12    0.92
  YS02001748YS02001751 CONDUIT    245.42     0  02:55      0.98    0.12    1.00
  YS02001751YS02001754 CONDUIT    179.68     0  02:53      0.78    0.09    1.00
  YS02001754YS02001757 CONDUIT    177.66     0  02:53      0.33    0.07    1.00
  YS02001882YS02001884 CONDUIT      2.90     0  03:11      0.13    0.00    0.58
  YS02001884YS02001887 CONDUIT      7.49     0  01:37      0.09    0.01    0.68
  YS02001890YS02001895 CONDUIT    175.41     0  03:01      0.33    0.08    0.65
  YS02001895YS02001898 CONDUIT    175.06     0  03:03      0.45    0.30    0.51
  YS02001898YS02001901 CONDUIT    177.15     0  03:05      0.37    0.11    0.59
  YS02001901YS02001904 CONDUIT    180.02     0  03:05      0.34    0.28    0.64
  YS02001904YS02001907 CONDUIT    184.34     0  03:05      0.28    0.06    0.80
  YS02001887YS02001890 CONDUIT    176.49     0  03:00      0.29    0.30    0.73
  YS02001652YS02001649 CONDUIT    184.92     0  03:04      0.66    0.09    1.00
  YS02001655YS02001652 CONDUIT    184.46     0  03:04      0.83    0.09    1.00
  YS02001658YS02001655 CONDUIT    307.27     0  02:53      1.13    0.13    1.00
  YS02001661YS02001658 CONDUIT    502.62     0  03:05      1.42    0.20    1.00
  YS02001664YS02001661 CONDUIT    442.43     0  03:35      1.27    0.14    0.70
  YSB1154YSB6556       CONDUIT      9.94     0  02:24      0.15    0.02    0.42
  YSB1174YSB1171       CONDUIT      7.88     0  01:18      0.05    0.01    0.54
  YSB1171HS02004479    CONDUIT     17.35     0  02:27      0.54    0.01    0.41
  HS02004881HS02006253 CONDUIT     30.59     0  02:26      1.51    0.01    0.50
  YS02001793JiankangQianchi CONDUIT    732.46     0  03:01     15.03    0.06    1.00
  YS02001757CaochengTiaoxuchi CONDUIT    872.00     0  03:02      1.19    0.38    1.00
  WSF200WS02003060     CONDUIT    549.38     0  04:43      2.04    0.12    0.34
  1                    CONDUIT    955.33     0  04:49      3.29    0.33    0.40
  CC-Pump-1            PUMP       200.00     0  03:30              1.00
  CC-Pump-2            PUMP       200.00     0  03:30              1.00
  JK-Pump-1            PUMP       300.00     0  00:00              1.00
  JK-Pump-2            PUMP       683.00     0  03:00              1.00
  XR-Pump-1            PUMP        95.00     0  00:00              1.00
  XR-Pump-2            PUMP        95.00     0  00:00              1.00
  XR-Pump-3            PUMP        95.00     0  00:00              1.00
  XR-Pump-4            PUMP        95.00     0  00:00              1.00
  
  
  ***************************
  Flow Classification Summary
  ***************************
  
  -------------------------------------------------------------------------------------
                      Adjusted    ---------- Fraction of Time in Flow Class ---------- 
                       /Actual         Up    Down  Sub   Sup   Up    Down  Norm  Inlet 
  Conduit               Length    Dry  Dry   Dry   Crit  Crit  Crit  Crit  Ltd   Ctrl  
  -------------------------------------------------------------------------------------
  WS02003066WSF200        1.00   0.01  0.02  0.00  0.00  0.97  0.00  0.00  0.72  0.00
  WS02006287WS02006284    1.00   0.03  0.01  0.00  0.73  0.23  0.00  0.00  0.84  0.00
  WS02006284WS02006280    1.00   0.04  0.00  0.00  0.00  0.00  0.00  0.96  0.00  0.00
  WS02006280WS02006229    1.00   0.04  0.00  0.00  0.00  0.00  0.00  0.96  0.00  0.00
  WS02006229WS02006228    1.00   0.00  0.00  0.00  1.00  0.00  0.00  0.00  0.00  0.00
  WS02006256WS02006235    1.00   0.00  0.00  0.00  1.00  0.00  0.00  0.00  0.00  0.00
  WS02006253WS02006251    1.00   0.02  0.02  0.00  0.96  0.00  0.01  0.00  0.00  0.00
  WS02006252WS02006251    1.00   0.19  0.00  0.00  0.07  0.00  0.73  0.00  0.00  0.00
  WS02006251WS02006249    1.00   0.00  0.00  0.00  1.00  0.00  0.00  0.00  0.38  0.00
  WS02006249WS02006248    1.00   0.00  0.01  0.00  0.88  0.00  0.11  0.00  0.00  0.00
  WS02006248WS02006247    1.00   0.01  0.00  0.00  0.99  0.00  0.00  0.00  0.21  0.00
  WS02006247WS02006245    1.00   0.00  0.00  0.00  0.99  0.00  0.00  0.00  0.00  0.00
  WS02006245WS02006243    1.00   0.00  0.00  0.00  0.97  0.00  0.00  0.03  0.00  0.00
  WS02006243WS02006242    1.00   0.00  0.00  0.00  1.00  0.00  0.00  0.00  0.23  0.00
  WS02006242WS02006240    1.00   0.00  0.00  0.00  1.00  0.00  0.00  0.00  0.00  0.00
  WS02006240WS02006239    1.00   0.00  0.00  0.00  0.95  0.00  0.00  0.05  0.01  0.00
  WS02006239WS02006238    1.00   0.00  0.00  0.00  1.00  0.00  0.00  0.00  0.13  0.00
  WS02006238WS02006235    1.00   0.00  0.00  0.00  1.00  0.00  0.00  0.00  0.00  0.00
  WS02006235WS02006234    1.00   0.00  0.00  0.00  0.96  0.00  0.04  0.00  0.00  0.00
  WS02006234WS02006232    1.00   0.00  0.00  0.00  1.00  0.00  0.00  0.00  0.09  0.00
  WS02006232WS02006231    1.00   0.00  0.00  0.00  1.00  0.00  0.00  0.00  0.00  0.00
  WS02006231WS02006230    1.00   0.00  0.00  0.00  0.74  0.00  0.26  0.00  0.00  0.00
  WS02006230WS02006229    1.00   0.00  0.00  0.00  1.00  0.00  0.00  0.00  0.00  0.00
  WS02006228WS02006109    1.00   0.00  0.00  0.00  1.00  0.00  0.00  0.00  0.00  0.00
  WS02006116WS02004401    1.00   0.01  0.00  0.00  0.99  0.00  0.00  0.00  0.00  0.00
  WS02006115WS02006116    1.00   0.01  0.00  0.00  0.99  0.00  0.00  0.00  0.00  0.00
  WS02006113WS02006111    1.00   0.01  0.00  0.00  0.00  0.99  0.00  0.00  0.18  0.00
  WS02006112WS02006115    1.00   0.01  0.00  0.00  0.99  0.00  0.00  0.00  0.00  0.00
  WS02006111WS02006112    1.00   0.01  0.00  0.00  0.99  0.00  0.00  0.00  0.98  0.00
  WS02006110WS02006113    1.00   0.00  0.00  0.00  0.99  0.00  0.00  0.00  0.00  0.00
  WS02006109WS02006110    1.00   0.00  0.00  0.00  0.99  0.00  0.00  0.00  0.00  0.00
  WS02004411WS02004412    1.00   0.02  0.00  0.00  0.98  0.00  0.00  0.00  0.00  0.00
  WS02004401WS02004402    1.00   0.01  0.00  0.00  0.99  0.00  0.00  0.00  0.00  0.00
  WS02004413WS02003067    1.00   0.02  0.01  0.00  0.00  0.00  0.98  0.00  0.00  0.00
  WS02004412WS02004413    1.00   0.02  0.00  0.00  0.98  0.00  0.00  0.00  0.01  0.00
  WS02004410WS02004411    1.00   0.02  0.00  0.00  0.98  0.00  0.00  0.00  0.00  0.00
  WS02004409WS02004410    1.00   0.02  0.00  0.00  0.98  0.00  0.00  0.00  0.02  0.00
  WS02004407WS02004409    1.00   0.02  0.00  0.00  0.98  0.00  0.00  0.00  0.95  0.00
  WS02004406WS02004407    1.00   0.00  0.01  0.00  0.98  0.00  0.00  0.00  0.00  0.00
  WS02004405WS02004406    1.00   0.00  0.00  0.00  1.00  0.00  0.00  0.00  0.00  0.00
  WS02004404WS02004405    1.00   0.00  0.00  0.00  1.00  0.00  0.00  0.00  0.00  0.00
  WS02004403WS02004404    1.00   0.00  0.01  0.00  0.99  0.00  0.00  0.00  0.00  0.00
  WS02004402WS02004403    1.00   0.01  0.00  0.00  0.99  0.00  0.00  0.00  0.00  0.00
  WS02004139WS02001211    1.00   0.00  0.00  0.00  1.00  0.00  0.00  0.00  0.00  0.00
  WS02004138WS02004139    1.00   0.00  0.00  0.00  1.00  0.00  0.00  0.00  1.00  0.00
  WS02003067WS02003066    1.00   0.02  0.00  0.00  0.97  0.00  0.00  0.00  0.00  0.00
  WS02001213WS02003059    1.00   0.00  0.00  0.00  1.00  0.00  0.00  0.00  0.00  0.00
  WS02001212WS02001213    1.00   0.00  0.00  0.00  0.91  0.00  0.08  0.00  0.00  0.00
  WS02001211WS02001212    1.00   0.00  0.00  0.00  1.00  0.00  0.00  0.00  0.00  0.00
  WS02003072WS02003073    1.00   0.00  0.00  0.00  0.00  0.00  0.00  1.00  0.00  0.00
  WS02003069WS02003072    1.00   0.00  0.00  0.00  1.00  0.00  0.00  0.00  0.16  0.00
  WS02003060WS02003069    1.00   0.00  0.00  0.00  0.99  0.01  0.00  0.00  0.12  0.00
  WS02003059WS02003060    1.00   0.00  0.00  0.00  1.00  0.00  0.00  0.00  0.01  0.00
  HS02004901HS02004770    1.00   0.04  0.00  0.00  0.96  0.00  0.00  0.00  0.00  0.00
  HS02004876HS02004881    1.00   0.01  0.00  0.00  0.99  0.00  0.00  0.00  0.00  0.00
  HS02004870HS02004876    1.00   0.00  0.00  0.00  0.99  0.00  0.00  0.00  0.95  0.00
  HS02004842HS02004848    1.00   0.00  0.04  0.00  0.96  0.00  0.00  0.00  0.58  0.00
  HS02004837HS02004842    1.00   0.00  0.00  0.00  1.00  0.00  0.00  0.00  0.11  0.00
  HS02004830HS02004837    1.00   0.00  0.00  0.00  1.00  0.00  0.00  0.00  0.99  0.00
  HS02004824HS02004830    1.00   0.00  0.00  0.00  1.00  0.00  0.00  0.00  0.00  0.00
  HS02004817HS02004824    1.00   0.00  0.00  0.00  1.00  0.00  0.00  0.00  1.00  0.00
  HS02004770HS02004777    1.00   0.00  0.04  0.00  0.96  0.00  0.00  0.00  0.02  0.00
  HS02004799HS02004480    1.00   0.00  0.01  0.00  0.96  0.00  0.03  0.00  0.00  0.00
  HS02004792HS02004799    1.00   0.00  0.00  0.00  1.00  0.00  0.00  0.00  0.98  0.00
  HS02004788HS02004792    1.00   0.00  0.00  0.00  1.00  0.00  0.00  0.00  0.98  0.00
  HS02004785HS02004788    1.00   0.00  0.00  0.00  1.00  0.00  0.00  0.00  0.00  0.00
  HS02004777HS02004785    1.00   0.00  0.00  0.00  1.00  0.00  0.00  0.00  0.11  0.00
  HS02004480HS02004478    1.00   0.04  0.00  0.00  0.77  0.00  0.00  0.19  0.00  0.00
  HS02004479HS02004480    1.00   0.01  0.00  0.00  0.99  0.00  0.00  0.00  0.11  0.00
  HS02004862HS02004870    1.00   0.00  0.00  0.00  1.00  0.00  0.00  0.00  0.03  0.00
  HS02004848HS02004852    1.00   0.04  0.00  0.00  0.96  0.00  0.00  0.00  0.73  0.00
  HS02004856HS02004862    1.00   0.00  0.04  0.00  0.96  0.00  0.00  0.00  0.83  0.00
  HS02004852HS02004856    1.00   0.04  0.00  0.00  0.96  0.00  0.00  0.00  0.86  0.00
  HS02004802HS02004478    1.00   0.04  0.00  0.00  0.96  0.00  0.00  0.00  0.02  0.00
  HS02004478WS02006287    1.00   0.04  0.00  0.00  0.92  0.03  0.00  0.00  0.84  0.00
  HS02004817HS02004807    1.00   0.00  0.04  0.00  0.96  0.00  0.00  0.00  0.01  0.00
  HS02004807HS02004802    1.00   0.04  0.00  0.00  0.96  0.00  0.00  0.00  0.00  0.00
  YS02001759YS02001757    1.00   0.00  0.00  0.00  1.00  0.00  0.00  0.00  0.15  0.00
  YS02001762YS02001759    1.00   0.00  0.00  0.00  1.00  0.00  0.00  0.00  0.02  0.00
  YS02001765YS02001762    1.00   0.00  0.00  0.00  1.00  0.00  0.00  0.00  0.13  0.00
  YS02001770YS02001767    1.00   0.00  0.00  0.00  1.00  0.00  0.00  0.00  0.00  0.00
  YS02001774YS02001770    1.00   0.00  0.04  0.00  0.96  0.00  0.00  0.00  0.02  0.00
  YS02001779YS02001774    1.00   0.00  0.00  0.00  1.00  0.00  0.00  0.00  0.18  0.00
  YS02001649YS02001757    1.00   0.00  0.00  0.00  1.00  0.00  0.00  0.00  0.15  0.00
  YS02001767YS02001765    1.00   0.00  0.00  0.00  1.00  0.00  0.00  0.00  0.00  0.00
  YS02006561YS02001783    1.00   0.05  0.00  0.00  0.07  0.88  0.00  0.00  0.70  0.00
  YS02001783YS02001784    1.00   0.00  0.05  0.00  0.95  0.00  0.00  0.00  0.01  0.00
  YS02001784YS02001785    1.00   0.00  0.00  0.00  1.00  0.00  0.00  0.00  0.17  0.00
  YS02001788YS02001790    1.00   0.00  0.00  0.00  0.17  0.83  0.00  0.00  0.64  0.00
  YS02001790YS02001791    1.00   0.00  0.00  0.00  0.14  0.86  0.00  0.00  0.62  0.00
  YS02001791YS02001793    1.00   0.00  0.00  0.00  0.19  0.81  0.00  0.00  0.05  0.00
  YS02001910YS02001907    1.00   0.00  0.00  0.00  0.99  0.00  0.00  0.01  0.12  0.00
  YS02001786YS02001788    1.00   0.00  0.00  0.00  0.14  0.86  0.00  0.00  0.00  0.00
  YS02001915YS02001910    1.00   0.00  0.00  0.00  0.99  0.01  0.00  0.00  0.14  0.00
  YS02001918YS02001915    1.00   0.00  0.00  0.00  0.99  0.01  0.00  0.00  0.73  0.00
  YS02001923YS02001920    1.00   0.00  0.00  0.00  1.00  0.00  0.00  0.00  1.00  0.00
  YS02001926YS02001923    1.00   0.00  0.02  0.00  0.00  0.00  0.98  0.00  0.00  0.00
  YS02001929YS02001926    1.00   0.00  0.04  0.00  0.96  0.00  0.00  0.00  0.87  0.00
  YS02001920YS02001918    1.00   0.00  0.00  0.00  1.00  0.00  0.00  0.00  0.00  0.00
  YS02001629YS02163301    1.00   0.04  0.00  0.00  0.96  0.00  0.00  0.00  0.00  0.00
  YS02001619YS02001622    1.00   0.04  0.00  0.00  0.96  0.00  0.00  0.00  0.00  0.00
  YS02001622YS02001625    1.00   0.04  0.00  0.00  0.96  0.00  0.00  0.00  0.04  0.00
  YS02001625YS02001629    1.00   0.04  0.01  0.00  0.93  0.00  0.02  0.00  0.00  0.00
  YS02163301YS02001633    1.00   0.00  0.04  0.00  0.96  0.00  0.00  0.00  0.00  0.00
  YS02163601YS02164001    1.00   0.00  0.02  0.00  0.98  0.00  0.00  0.00  0.00  0.00
  YS02164001YS02001641    1.00   0.00  0.02  0.00  0.98  0.00  0.00  0.00  0.06  0.00
  YS02001641YS02001644    1.00   0.00  0.00  0.00  1.00  0.00  0.00  0.00  0.00  0.00
  YS02001647YS02001649    1.00   0.00  0.05  0.00  0.95  0.00  0.00  0.00  0.01  0.00
  YS02006553YS02006556    1.00   0.01  0.00  0.00  0.99  0.00  0.00  0.00  0.03  0.00
  YS02006556YS02006558    1.00   0.00  0.00  0.00  1.00  0.00  0.00  0.00  0.00  0.00
  YSB6556YSB1171          1.00   0.01  0.02  0.00  0.97  0.00  0.00  0.00  0.00  0.00
  YS02001907YS02006553    1.00   0.00  0.01  0.00  0.99  0.00  0.00  0.00  0.00  0.00
  YS02006558YS02006561    1.00   0.05  0.00  0.00  0.00  0.95  0.00  0.00  0.71  0.00
  YS02001633YS02163601    1.00   0.00  0.00  0.00  1.00  0.00  0.00  0.00  0.15  0.00
  YS02001644YS02001647    1.00   0.00  0.05  0.00  0.95  0.00  0.00  0.00  0.00  0.00
  YS02001745YS02001748    1.00   0.00  0.00  0.00  0.90  0.01  0.00  0.09  0.07  0.00
  YS02001748YS02001751    1.00   0.00  0.00  0.00  0.97  0.03  0.00  0.00  0.16  0.00
  YS02001751YS02001754    1.00   0.00  0.00  0.00  0.94  0.00  0.00  0.06  0.03  0.00
  YS02001754YS02001757    1.00   0.00  0.00  0.00  1.00  0.00  0.00  0.00  0.18  0.00
  YS02001882YS02001884    1.00   0.04  0.00  0.00  0.96  0.00  0.00  0.00  0.00  0.00
  YS02001884YS02001887    1.00   0.02  0.01  0.00  0.97  0.00  0.00  0.00  0.00  0.00
  YS02001890YS02001895    1.00   0.00  0.04  0.00  0.96  0.00  0.00  0.00  0.00  0.00
  YS02001895YS02001898    1.00   0.04  0.00  0.00  0.95  0.00  0.01  0.00  0.00  0.00
  YS02001898YS02001901    1.00   0.04  0.00  0.00  0.96  0.00  0.00  0.00  0.02  0.00
  YS02001901YS02001904    1.00   0.04  0.00  0.00  0.96  0.00  0.00  0.00  0.00  0.00
  YS02001904YS02001907    1.00   0.00  0.04  0.00  0.96  0.00  0.00  0.00  0.00  0.00
  YS02001887YS02001890    1.00   0.00  0.00  0.00  0.99  0.00  0.01  0.00  0.00  0.00
  YS02001652YS02001649    1.00   0.00  0.00  0.00  1.00  0.00  0.00  0.00  0.16  0.00
  YS02001655YS02001652    1.00   0.00  0.00  0.00  0.95  0.00  0.00  0.05  0.03  0.00
  YS02001658YS02001655    1.00   0.00  0.04  0.00  0.93  0.03  0.00  0.00  0.12  0.00
  YS02001661YS02001658    1.00   0.04  0.00  0.00  0.90  0.06  0.00  0.00  0.17  0.00
  YS02001664YS02001661    1.00   0.04  0.00  0.00  0.91  0.06  0.00  0.00  0.27  0.00
  YSB1154YSB6556          1.00   0.03  0.00  0.00  0.97  0.00  0.00  0.00  0.01  0.00
  YSB1174YSB1171          1.00   0.02  0.01  0.00  0.97  0.00  0.00  0.00  0.00  0.00
  YSB1171HS02004479       1.00   0.01  0.00  0.00  0.98  0.00  0.00  0.00  0.10  0.00
  HS02004881HS02006253    1.00   0.02  0.00  0.00  0.77  0.00  0.00  0.21  0.54  0.00
  YS02001793JiankangQianchi    1.00   0.00  0.00  0.00  0.67  0.32  0.00  0.00  0.54  0.00
  YS02001757CaochengTiaoxuchi    1.00   0.00  0.07  0.00  0.93  0.00  0.00  0.00  0.00  0.00
  WSF200WS02003060        1.00   0.00  0.01  0.00  0.85  0.14  0.00  0.00  0.44  0.00
  1                       1.00   0.00  0.00  0.00  0.00  1.00  0.00  0.00  0.43  0.00
  
  
  *************************
  Conduit Surcharge Summary
  *************************
  
  ----------------------------------------------------------------------------
                                                           Hours        Hours 
                         --------- Hours Full --------   Above Full   Capacity
  Conduit                Both Ends  Upstream  Dnstream   Normal Flow   Limited
  ----------------------------------------------------------------------------
  WS02006229WS02006228        2.78      3.04      2.78      4.85         2.78
  WS02006256WS02006235        6.00      6.01      6.90      3.80         0.01
  WS02006253WS02006251        1.73      1.73      1.82      0.01         0.01
  WS02006252WS02006251        1.58      1.58      2.75      2.43         0.01
  WS02006251WS02006249        1.75      1.76      1.82      1.47         1.18
  WS02006249WS02006248        1.72      1.72      1.82      4.18         0.01
  WS02006248WS02006247        1.79      1.79      2.01      0.01         0.01
  WS02006247WS02006245        1.96      2.04      1.96      4.27         1.95
  WS02006245WS02006243        1.98      1.99      2.01      0.78         0.64
  WS02006243WS02006242        2.05      2.05      2.32      0.01         0.01
  WS02006242WS02006240        2.08      2.08      2.55      2.83         0.01
  WS02006240WS02006239        2.09      2.12      2.16      1.88         1.10
  WS02006239WS02006238        2.39      2.45      2.47      1.98         1.31
  WS02006238WS02006235        2.40      2.40      2.61      0.01         0.01
  WS02006235WS02006234        2.00      2.00      2.34      5.94         0.01
  WS02006234WS02006232        2.17      2.17      2.64      1.09         1.08
  WS02006232WS02006231        1.40      1.40      2.64      1.26         0.01
  WS02006231WS02006230        0.94      0.94      1.49      6.04         0.01
  WS02006230WS02006229        4.04      4.56      4.04      6.24         4.04
  WS02006228WS02006109        2.92      3.45      2.92      5.66         2.92
  WS02006112WS02006115        0.01      0.01      1.44      0.01         0.01
  WS02006111WS02006112        0.01      0.01      5.08      0.01         0.01
  WS02006110WS02006113        0.01      0.01      3.25      0.01         0.01
  WS02006109WS02006110        1.06      1.06      3.45      1.08         0.01
  WS02004405WS02004406        0.01      0.01      0.01      1.15         0.01
  WS02004404WS02004405        0.01      0.01      0.01      6.13         0.01
  WS02003072WS02003073        0.01      0.01      0.01      5.28         0.01
  YS02001759YS02001757        5.55      5.55      5.71      0.01         0.01
  YS02001762YS02001759        5.51      5.51      5.55      0.01         0.01
  YS02001765YS02001762        5.46      5.46      5.51      0.01         0.01
  YS02001770YS02001767        5.41      5.41      5.42      0.01         0.51
  YS02001774YS02001770        5.38      5.38      5.49      0.01         0.01
  YS02001779YS02001774        5.09      5.09      5.49      0.01         0.01
  YS02001649YS02001757        5.52      5.52      5.71      0.01         0.01
  YS02001767YS02001765        5.42      5.42      5.46      0.01         0.01
  YS02001783YS02001784        0.01      0.01      0.01      0.01         0.01
  YS02001784YS02001785        0.01      0.01      0.01      0.53         0.01
  YS02001788YS02001790        0.01      0.01      0.44      0.01         0.01
  YS02001790YS02001791        0.44      0.44      0.50      0.01         0.01
  YS02001791YS02001793        0.50      0.50      0.85      0.01         0.01
  YS02001786YS02001788        0.01      0.01      0.01      0.04         0.01
  YS02001629YS02163301        5.36      5.36      5.40      0.01         0.01
  YS02001619YS02001622        4.80      4.80      4.86      0.01         0.01
  YS02001622YS02001625        4.86      4.86      5.29      0.01         0.01
  YS02001625YS02001629        4.83      4.83      5.29      0.01         0.01
  YS02163301YS02001633        5.40      5.40      5.46      0.01         0.01
  YS02163601YS02164001        5.45      5.45      5.52      0.01         0.01
  YS02164001YS02001641        5.45      5.45      5.48      0.01         0.01
  YS02001641YS02001644        5.48      5.48      5.48      0.01         0.77
  YS02001647YS02001649        5.26      5.26      5.52      0.01         0.01
  YS02001907YS02006553        0.62      0.62      0.95      0.01         0.01
  YS02006558YS02006561        0.01      0.01      0.01      0.32         0.01
  YS02001633YS02163601        5.44      5.44      5.52      0.01         0.01
  YS02001644YS02001647        5.26      5.26      5.48      0.01         0.01
  YS02001745YS02001748        0.01      0.01      3.61      0.01         0.01
  YS02001748YS02001751        4.23      4.23      4.86      0.01         0.01
  YS02001751YS02001754        4.85      4.85      5.15      0.01         0.01
  YS02001754YS02001757        5.24      5.24      5.71      0.01         0.01
  YS02001652YS02001649        5.28      5.28      5.52      0.01         0.01
  YS02001655YS02001652        4.89      4.89      5.22      0.01         0.01
  YS02001658YS02001655        3.72      3.72      4.89      0.01         0.01
  YS02001661YS02001658        0.01      0.01      3.72      0.01         0.01
  YS02001664YS02001661        0.01      0.01      0.20      0.01         0.01
  HS02004881HS02006253        0.01      0.01      1.02      0.01         0.01
  YS02001793JiankangQianchi        0.74      0.74      3.58      0.01         0.01
  YS02001757CaochengTiaoxuchi        4.63      4.63      5.71      0.01         0.01
  
  
  ***************
  Pumping Summary
  ***************
  
  ---------------------------------------------------------------------------------------------------------
                                                  Min       Avg       Max     Total     Power    % Time Off
                        Percent   Number of      Flow      Flow      Flow    Volume     Usage    Pump Curve
  Pump                 Utilized   Start-Ups       LPS       LPS       LPS  10^6 ltr     Kw-hr    Low   High
  ---------------------------------------------------------------------------------------------------------
  CC-Pump-1               57.44           1      0.00    190.24    200.00     3.060      4.06    0.0    0.0
  CC-Pump-2               44.68           5      0.00     97.77    200.00     1.560      2.38    0.0    0.0
  JK-Pump-1               57.44           6      0.00    182.72    300.00     2.881     51.63    0.0    0.0
  JK-Pump-2               38.30           5      0.00    250.39    683.00     2.902     54.36    0.0   95.4
  XR-Pump-1               91.49           3      0.00     91.28     95.00     2.337     46.42    0.0    0.0
  XR-Pump-2               91.49           3      0.00     90.76     95.00     2.280     45.16    0.0    0.0
  XR-Pump-3               87.23           4      0.00     86.34     95.00     2.109     41.28    0.0    0.0
  XR-Pump-4               87.23           4      0.00     86.34     95.00     2.109     41.28    0.0    0.0
  
  
  ***************************
  Link Pollutant Load Summary
  ***************************
  
  ------------------------------------------------------------------------------------------
                                 COD            SS            TN            TP         NH4-N
  Link                            kg            kg            kg            kg            kg
  ------------------------------------------------------------------------------------------
  WS02003066WSF200           520.041       884.603        16.841         1.589         9.215
  WS02006287WS02006284       130.777       224.320         6.735         0.755         3.971
  WS02006284WS02006280       131.257       225.089         6.782         0.761         4.000
  WS02006280WS02006229       131.232       225.048         6.780         0.760         3.999
  WS02006229WS02006228       527.254       896.765        16.506         1.529         8.963
  WS02006256WS02006235       109.592       183.989         3.240         0.291         1.747
  WS02006253WS02006251        23.773        42.135         0.676         0.058         0.356
  WS02006252WS02006251       291.565       494.526         6.463         0.467         3.184
  WS02006251WS02006249       308.485       525.092         6.997         0.515         3.472
  WS02006249WS02006248       294.225       500.856         6.679         0.492         3.315
  WS02006248WS02006247       294.013       500.522         6.674         0.492         3.312
  WS02006247WS02006245       293.613       499.856         6.664         0.491         3.307
  WS02006245WS02006243       293.239       499.269         6.652         0.490         3.301
  WS02006243WS02006242       293.277       499.426         6.654         0.490         3.302
  WS02006242WS02006240       293.680       500.233         6.667         0.492         3.309
  WS02006240WS02006239       294.743       502.071         6.707         0.496         3.332
  WS02006239WS02006238       296.269       504.475         6.781         0.504         3.375
  WS02006238WS02006235       296.989       505.485         6.821         0.508         3.399
  WS02006235WS02006234       399.255       677.102         9.816         0.776         5.012
  WS02006234WS02006232       398.801       676.332         9.809         0.776         5.009
  WS02006232WS02006231       398.215       675.346         9.794         0.774         5.001
  WS02006231WS02006230       397.372       673.915         9.770         0.772         4.988
  WS02006230WS02006229       396.731       672.887         9.751         0.771         4.978
  WS02006228WS02006109       526.459       895.456        16.482         1.527         8.950
  WS02006116WS02004401       531.878       904.254        17.152         1.614         9.375
  WS02006115WS02006116       533.023       906.151        17.187         1.617         9.394
  WS02006113WS02006111       532.530       905.034        17.215         1.621         9.415
  WS02006112WS02006115       534.195       908.096        17.230         1.621         9.418
  WS02006111WS02006112       532.075       904.285        17.201         1.619         9.407
  WS02006110WS02006113       533.085       905.957        17.236         1.623         9.427
  WS02006109WS02006110       534.135       907.697        17.278         1.627         9.450
  WS02004411WS02004412       523.608       890.471        16.974         1.602         9.289
  WS02004401WS02004402       530.735       902.354        17.112         1.610         9.353
  WS02004413WS02003067       520.759       885.769        16.864         1.591         9.227
  WS02004412WS02004413       522.286       888.300        16.928         1.598         9.264
  WS02004410WS02004411       524.692       892.254        17.009         1.605         9.308
  WS02004409WS02004410       525.758       894.017        17.045         1.609         9.328
  WS02004407WS02004409       526.654       895.495        17.071         1.611         9.342
  WS02004406WS02004407       526.939       895.963        17.075         1.611         9.343
  WS02004405WS02004406       528.353       898.310        17.130         1.616         9.375
  WS02004404WS02004405       529.230       899.775        17.134         1.616         9.374
  WS02004403WS02004404       528.743       899.040        17.046         1.604         9.317
  WS02004402WS02004403       529.688       900.615        17.079         1.607         9.335
  WS02004139WS02001211      1472.055      2366.310       135.286        16.796        84.212
  WS02004138WS02004139      1468.488      2360.602       134.945        16.753        83.999
  WS02003067WS02003066       520.231       884.916        16.849         1.590         9.219
  WS02001213WS02003059      1518.405      2440.495       139.718        17.349        86.982
  WS02001212WS02001213      1521.852      2446.005       140.059        17.392        87.195
  WS02001211WS02001212      1522.194      2446.538       140.098        17.397        87.220
  WS02003072WS02003073      2138.345      3484.734       166.423        20.176       102.373
  WS02003069WS02003072      2142.964      3492.166       166.798        20.222       102.605
  WS02003060WS02003069      2145.132      3495.680       166.928        20.236       102.682
  WS02003059WS02003060      1516.960      2438.232       139.520        17.324        86.855
  HS02004901HS02004770         3.527         6.232         0.070         0.005         0.032
  HS02004876HS02004881        14.186        25.684         0.391         0.032         0.203
  HS02004870HS02004876        10.848        19.557         0.334         0.029         0.176
  HS02004842HS02004848         2.262         3.968         0.050         0.003         0.023
  HS02004837HS02004842         6.908        11.365         0.521         0.063         0.318
  HS02004830HS02004837        51.481        84.187         4.292         0.527         2.658
  HS02004824HS02004830        52.233        85.391         4.365         0.536         2.703
  HS02004817HS02004824        60.473       100.505         4.551         0.548         2.795
  HS02004770HS02004777        13.859        24.803         0.307         0.020         0.139
  HS02004799HS02004480        55.257        95.359         2.216         0.230         1.246
  HS02004792HS02004799        51.028        87.325         2.185         0.231         1.240
  HS02004788HS02004792        32.507        55.593         1.677         0.185         0.978
  HS02004785HS02004788        15.290        27.084         0.457         0.039         0.234
  HS02004777HS02004785        14.613        25.999         0.395         0.031         0.195
  HS02004480HS02004478        67.165       117.168         2.379         0.238         1.315
  HS02004479HS02004480        15.468        27.511         0.475         0.047         0.264
  HS02004862HS02004870         8.087        14.297         0.278         0.026         0.150
  HS02004848HS02004852         2.453         4.320         0.054         0.004         0.025
  HS02004856HS02004862         4.697         8.538         0.099         0.006         0.046
  HS02004852HS02004856         2.462         4.336         0.055         0.004         0.025
  HS02004802HS02004478        64.478       108.557         4.420         0.524         2.695
  HS02004478WS02006287       130.968       224.630         6.753         0.757         3.982
  HS02004817HS02004807        59.058        98.247         4.411         0.531         2.707
  HS02004807HS02004802        64.694       108.899         4.452         0.528         2.715
  YS02001759YS02001757       169.643       290.012         3.710         0.258         1.837
  YS02001762YS02001759        88.811       152.985         2.130         0.154         1.077
  YS02001765YS02001762        88.686       152.763         2.149         0.156         1.089
  YS02001770YS02001767        86.497       149.265         1.856         0.117         0.902
  YS02001774YS02001770         3.503         5.792         0.091         0.007         0.047
  YS02001779YS02001774         2.470         3.998         0.137         0.015         0.081
  YS02001649YS02001757       217.513       360.289         4.617         0.332         2.214
  YS02001767YS02001765        88.857       153.051         2.163         0.158         1.098
  YS02006561YS02001783       347.056       588.431         8.887         0.733         4.633
  YS02001783YS02001784       346.962       588.286         8.884         0.733         4.631
  YS02001784YS02001785       354.328       600.085         9.597         0.822         5.077
  YS02001788YS02001790       354.972       601.129         9.670         0.832         5.123
  YS02001790YS02001791       356.030       602.843         9.771         0.844         5.186
  YS02001791YS02001793       356.022       602.829         9.768         0.844         5.185
  YS02001910YS02001907       119.922       200.449         4.150         0.381         2.289
  YS02001786YS02001788       354.554       600.456         9.625         0.826         5.095
  YS02001915YS02001910       119.918       200.408         4.112         0.375         2.263
  YS02001918YS02001915        60.887        97.784         2.806         0.304         1.640
  YS02001923YS02001920        40.882        65.796         0.860         0.060         0.423
  YS02001926YS02001923        40.521        65.216         0.821         0.055         0.398
  YS02001929YS02001926        40.261        64.789         0.789         0.051         0.378
  YS02001920YS02001918        60.806        97.680         2.778         0.300         1.622
  YS02001629YS02163301        44.566        74.098         0.985         0.062         0.455
  YS02001619YS02001622        48.065        79.554         1.067         0.066         0.493
  YS02001622YS02001625        47.192        78.238         1.046         0.065         0.483
  YS02001625YS02001629        46.063        76.566         1.018         0.063         0.470
  YS02163301YS02001633        44.229        73.547         0.978         0.061         0.453
  YS02163601YS02164001       125.836       207.885         2.691         0.189         1.294
  YS02164001YS02001641       125.365       207.116         2.672         0.187         1.283
  YS02001641YS02001644       125.420       207.158         2.667         0.187         1.280
  YS02001647YS02001649       175.647       289.583         3.599         0.253         1.722
  YS02006553YS02006556       251.103       424.473         6.713         0.574         3.553
  YS02006556YS02006558       251.015       424.299         6.684         0.570         3.534
  YSB6556YSB1171               8.430        15.122         0.209         0.019         0.111
  YS02001907YS02006553       251.114       424.521         6.717         0.575         3.556
  YS02006558YS02006561       347.065       588.441         8.887         0.733         4.633
  YS02001633YS02163601       126.411       208.729         2.671         0.185         1.278
  YS02001644YS02001647       178.105       293.556         3.646         0.257         1.744
  YS02001745YS02001748        71.087       120.494         1.814         0.131         0.924
  YS02001748YS02001751        70.723       119.760         1.901         0.145         0.983
  YS02001751YS02001754        70.047       118.650         1.919         0.149         0.999
  YS02001754YS02001757        70.932       120.053         2.083         0.171         1.105
  YS02001882YS02001884         0.739         1.171         0.018         0.001         0.009
  YS02001884YS02001887         2.738         4.516         0.061         0.005         0.031
  YS02001890YS02001895       132.676       226.288         2.618         0.199         1.296
  YS02001895YS02001898       132.523       226.063         2.612         0.198         1.293
  YS02001898YS02001901       132.405       225.892         2.609         0.198         1.291
  YS02001901YS02001904       132.265       225.700         2.612         0.199         1.293
  YS02001904YS02001907       132.468       226.064         2.653         0.204         1.320
  YS02001887YS02001890       133.474       227.513         2.672         0.205         1.329
  YS02001652YS02001649        46.705        78.496         1.114         0.084         0.535
  YS02001655YS02001652        47.400        79.590         1.133         0.086         0.545
  YS02001658YS02001655        46.472        78.077         0.991         0.067         0.452
  YS02001661YS02001658        52.815        88.990         1.123         0.076         0.513
  YS02001664YS02001661        62.187       103.768         1.338         0.090         0.610
  YSB1154YSB6556               8.028        14.482         0.162         0.013         0.082
  YSB1174YSB1171               5.542         9.995         0.133         0.012         0.070
  YSB1171HS02004479           15.427        27.443         0.480         0.048         0.267
  HS02004881HS02006253        15.942        28.985         0.416         0.033         0.213
  YS02001793JiankangQianchi       356.686       603.900         9.802         0.847         5.204
  YS02001757CaochengTiaoxuchi       451.430       760.480        10.092         0.728         4.974
  WSF200WS02003060           519.858       884.307        16.843         1.589         9.217
  1                         2142.715      3491.654       166.990        20.249       102.734
  CC-Pump-1                  192.324       325.993         4.266         0.308         2.101
  CC-Pump-2                   99.266       168.574         2.198         0.159         1.083
  JK-Pump-1                  113.101       189.914         3.306         0.295         1.779
  JK-Pump-2                  125.707       214.567         3.283         0.277         1.724
  XR-Pump-1                  395.788       636.084        36.454         4.527        22.696
  XR-Pump-2                  382.137       614.243        35.143         4.364        21.877
  XR-Pump-3                  345.431       555.379        31.687         3.933        19.721
  XR-Pump-4                  345.431       555.379        31.687         3.933        19.721
  

  Analysis begun on:  Sat Jul 10 15:52:01 2021
  Analysis ended on:  Sat Jul 10 15:52:04 2021
  Total elapsed time: 00:00:03