
  EPA STORM WATER MANAGEMENT MODEL - VERSION 5.1 (Build 5.3.0.dev0)
  --------------------------------------------------------------

  WARNING 04: minimum elevation drop used for Conduit WS02004404WS02004405
  WARNING 03: negative offset ignored for Link YS02001904YS02001907
  
  *********************************************************
  NOTE: The summary statistics displayed in this report are
  based on results found at every computational time step,  
  not just on results from each reporting time step.
  *********************************************************
  
  ****************
  Analysis Options
  ****************
  Flow Units ............... LPS
  Process Models:
    Rainfall/Runoff ........ YES
    RDII ................... NO
    Snowmelt ............... NO
    Groundwater ............ NO
    Flow Routing ........... YES
    Ponding Allowed ........ NO
    Water Quality .......... YES
  Infiltration Method ...... HORTON
  Flow Routing Method ...... DYNWAVE
  Surcharge Method ......... EXTRAN
  Starting Date ............ 08/28/2015 08:00:00
  Ending Date .............. 08/28/2015 16:00:00
  Antecedent Dry Days ...... 8.0
  Report Time Step ......... 00:01:00
  Wet Time Step ............ 00:01:00
  Dry Time Step ............ 00:01:00
  Routing Time Step ........ 5.00 sec
  Variable Time Step ....... YES
  Maximum Trials ........... 8
  Number of Threads ........ 4
  Head Tolerance ........... 0.001500 m
  
  
  **************************        Volume         Depth
  Runoff Quantity Continuity     hectare-m            mm
  **************************     ---------       -------
  Total Precipitation ......         7.641        16.729
  Evaporation Loss .........         0.000         0.000
  Infiltration Loss ........         1.187         2.600
  Surface Runoff ...........         5.505        12.052
  Final Storage ............         0.950         2.080
  Continuity Error (%) .....        -0.016
  
  
  **************************           COD            SS            TN            TP         NH4-N
  Runoff Quality Continuity             kg            kg            kg            kg            kg
  **************************    ----------    ----------    ----------    ----------    ----------
  Initial Buildup ..........     41378.656     70582.865      1804.177       168.684      1032.807
  Surface Buildup ..........        32.516        68.499         2.497         0.224         1.426
  Wet Deposition ...........         0.000         0.000         0.000         0.000         0.000
  Sweeping Removal .........         0.000         0.000         0.000         0.000         0.000
  Infiltration Loss ........       128.766       248.591         2.469         0.175         1.182
  BMP Removal ..............         0.000         0.000         0.000         0.000         0.000
  Surface Runoff ...........      5565.309     10652.910       107.374         7.429        51.205
  Remaining Buildup ........     35715.041     59745.900      1696.789       161.300       981.827
  Continuity Error (%) .....         0.005         0.006         0.002         0.002         0.002
  
  
  **************************        Volume        Volume
  Flow Routing Continuity        hectare-m      10^6 ltr
  **************************     ---------     ---------
  Dry Weather Inflow .......         0.630         6.296
  Wet Weather Inflow .......         5.503        55.033
  Groundwater Inflow .......         0.000         0.000
  RDII Inflow ..............         0.000         0.000
  External Inflow ..........         0.105         1.045
  External Outflow .........         1.957        19.574
  Flooding Loss ............         3.833        38.334
  Evaporation Loss .........         0.000         0.000
  Exfiltration Loss ........         0.000         0.000
  Initial Stored Volume ....         0.076         0.761
  Final Stored Volume ......         0.631         6.315
  Continuity Error (%) .....        -1.724
  
  
  **************************           COD            SS            TN            TP         NH4-N
  Quality Routing Continuity            kg            kg            kg            kg            kg
  **************************    ----------    ----------    ----------    ----------    ----------
  Dry Weather Inflow .......      1573.993      2518.389       151.103        18.888        94.440
  Wet Weather Inflow .......      5564.453     10651.411       107.356         7.428        51.196
  Groundwater Inflow .......         0.000         0.000         0.000         0.000         0.000
  RDII Inflow ..............         0.000         0.000         0.000         0.000         0.000
  External Inflow ..........       187.321       299.713        17.983         2.248        11.239
  External Outflow .........      2462.934      4375.420       142.219        16.437        85.186
  Flooding Loss ............      4105.077      7742.388       104.719         9.091        54.903
  Exfiltration Loss ........         0.000         0.000         0.000         0.000         0.000
  Mass Reacted .............         0.000         0.000         0.000         0.000         0.000
  Initial Stored Mass ......         0.000         0.000         0.000         0.000         0.000
  Final Stored Mass ........       650.108      1173.879        25.914         2.703        14.825
  Continuity Error (%) .....         1.469         1.320         1.299         1.165         1.250
  
  
  *************************
  Highest Continuity Errors
  *************************
  Node HS02004842 (10.95%)
  Node YS02001884 (9.76%)
  Node JK-storage (-8.82%)
  Node HS02004817 (2.12%)
  Node YSB1171 (1.97%)
  
  
  ***************************
  Time-Step Critical Elements
  ***************************
  Link WS02006252WS02006251 (53.14%)
  Link WS02006280WS02006229 (11.99%)
  Link WS02006238WS02006235 (7.36%)
  Link YS02001793JiankangQianchi (7.15%)
  Link YS02006556YS02006558 (4.22%)
  
  
  ********************************
  Highest Flow Instability Indexes
  ********************************
  Link WS02006113WS02006111 (46)
  Link YS02163301YS02001633 (34)
  Link YS02163601YS02164001 (33)
  Link YS02001629YS02163301 (33)
  Link YS02001619YS02001622 (32)
  
  
  *************************
  Routing Time Step Summary
  *************************
  Minimum Time Step           :     0.50 sec
  Average Time Step           :     1.49 sec
  Maximum Time Step           :     5.00 sec
  Percent in Steady State     :    -0.00
  Average Iterations per Step :     3.87
  Percent Not Converging      :    12.78
  
  
  ***************************
  Subcatchment Runoff Summary
  ***************************
  
  ------------------------------------------------------------------------------------------------------------------------------
                            Total      Total      Total      Total     Imperv       Perv      Total       Total     Peak  Runoff
                           Precip      Runon       Evap      Infil     Runoff     Runoff     Runoff      Runoff   Runoff   Coeff
  Subcatchment                 mm         mm         mm         mm         mm         mm         mm    10^6 ltr      LPS
  ------------------------------------------------------------------------------------------------------------------------------
  sub0                      16.73       0.00       0.00       0.71      15.51       0.47      15.98        0.01     3.87   0.955
  sub1                      16.73       0.00       0.00       1.18      14.80       0.66      15.47        0.10    26.74   0.924
  sub2                      16.73       0.00       0.00       4.79      10.46       1.40      11.85        0.11    25.81   0.709
  sub3                      16.73       0.00       0.00       5.01      10.42       1.18      11.60        0.26    56.97   0.694
  sub4                      16.73       0.00       0.00       1.28      14.65       0.56      15.21        0.32    66.74   0.909
  sub5                      16.73       0.00       0.00       0.73      15.47       0.44      15.91        0.18    46.91   0.951
  sub7                      16.73       0.00       0.00       0.93      15.16       0.58      15.74        0.05    14.85   0.941
  sub8                      16.73       0.00       0.00       0.94      15.15       0.57      15.72        0.10    27.42   0.940
  sub9                      16.73       0.00       0.00       0.94      15.15       0.57      15.72        0.08    20.52   0.940
  sub10                     16.73       0.00       0.00       0.83      15.31       0.50      15.81        0.17    46.04   0.945
  sub11                     16.73       0.00       0.00       0.83      15.32       0.51      15.84        0.18    50.62   0.947
  sub12                     16.73       0.00       0.00       1.34      14.51       0.83      15.34        0.13    39.22   0.917
  sub14                     16.73       0.00       0.00       0.94      15.15       0.57      15.72        0.15    40.40   0.940
  sub15                     16.73       0.00       0.00       3.54      11.65       1.48      13.13        0.23    57.86   0.785
  sub16                     16.73       0.00       0.00       3.72      11.17       1.80      12.97        0.14    37.34   0.776
  sub17                     16.73       0.00       0.00       3.62      11.33       1.73      13.07        0.11    30.57   0.781
  sub22                     16.73       0.00       0.00       5.27       9.50       1.92      11.42        0.72   183.11   0.683
  sub23                     16.73       0.00       0.00       4.37      10.50       1.82      12.32        0.59   153.57   0.736
  sub60                     16.73       0.00       0.00       1.74      12.84       0.27      13.11        3.97   446.24   0.784
  sub61                     16.73       0.00       0.00       2.46      12.76       0.38      13.15        4.05   542.53   0.786
  sub62                     16.73       0.00       0.00       1.06      13.96       0.27      14.24        4.38   558.01   0.851
  sub63                     16.73       0.00       0.00       4.39      11.09       0.46      11.55        3.50   496.40   0.690
  sub64                     16.73       0.00       0.00       2.23      12.34       0.28      12.62        3.84   424.95   0.754
  sub65                     16.73       0.00       0.00       1.91      12.57       0.27      12.84        3.95   431.32   0.767
  sub66                     16.73       0.00       0.00       4.54      10.51       0.31      10.82        3.32   388.44   0.647
  sub67                     16.73       0.00       0.00       1.01      14.49       0.32      14.81        4.57   675.76   0.885
  sub68                     16.73       0.00       0.00       1.95      13.36       0.39      13.75        4.23   589.75   0.822
  sub69                     16.73       0.00       0.00       2.00      13.64       0.51      14.15        3.31   542.07   0.846
  sub70                     16.73      14.44       0.00       8.48      19.08       2.12      21.20        4.85   534.50   0.680
  sub71                     16.73       0.00       0.00       1.08      13.70       0.25      13.96        3.30   394.68   0.834
  sub72                     16.73       0.00       0.00       1.02      11.61       0.15      11.76        2.40   206.66   0.703
  1                         16.73      20.64       0.00       1.40      22.50       7.30      29.80        7.00   612.18   0.797
  2                         16.73       0.00       0.00       3.09       4.04       3.23       7.28        2.91   331.58   0.435
  
  
  ****************************
  Subcatchment Washoff Summary
  ****************************
  
  ------------------------------------------------------------------------------------------
                                 COD            SS            TN            TP         NH4-N
  Subcatchment                    kg            kg            kg            kg            kg
  ------------------------------------------------------------------------------------------
  sub0                         3.641         7.161         0.064         0.005         0.031
  sub1                        15.670        31.767         0.296         0.021         0.143
  sub2                        10.304        20.454         0.214         0.015         0.099
  sub3                        25.293        49.815         0.517         0.036         0.240
  sub4                        36.171        74.264         0.714         0.044         0.344
  sub5                        35.763        71.366         0.649         0.050         0.316
  sub7                         7.894        16.212         0.150         0.010         0.073
  sub8                        11.755        24.726         0.234         0.014         0.113
  sub9                        10.113        20.966         0.196         0.013         0.095
  sub10                       29.347        59.341         0.545         0.040         0.265
  sub11                       28.395        58.052         0.536         0.037         0.260
  sub12                       24.463        49.072         0.450         0.034         0.218
  sub14                       21.697        44.543         0.414         0.028         0.200
  sub15                       29.696        58.821         0.572         0.042         0.270
  sub16                       19.246        38.050         0.367         0.028         0.174
  sub17                       17.687        34.653         0.330         0.026         0.156
  sub22                       95.915       186.896         1.820         0.139         0.857
  sub23                       54.382       109.539         1.141         0.076         0.527
  sub60                      354.593       680.511         7.004         0.438         3.365
  sub61                      440.069       840.656         8.197         0.570         3.956
  sub62                      450.295       873.880         8.757         0.565         4.215
  sub63                      328.398       618.659         6.511         0.464         3.040
  sub64                      451.703       836.730         8.316         0.612         3.984
  sub65                      461.380       857.960         8.545         0.619         4.099
  sub66                      259.829       485.752         5.258         0.349         2.468
  sub67                      667.509      1281.525        12.082         0.900         5.857
  sub68                      479.818       924.967         9.162         0.628         4.393
  sub69                      429.413       835.624         8.071         0.576         3.875
  sub70                      759.749      1480.829        15.227         1.076         7.188
  sub71                      296.718       581.321         6.039         0.357         2.896
  sub72                      248.910       454.215         4.636         0.321         2.234
  1                          582.783      1142.119        11.847         0.837         5.542
  2                           65.870       118.919         1.812         0.110         0.778
  ------------------------------------------------------------------------------------------
  System                    6754.471     12969.363       130.673         9.081        62.268
  
  
  ******************
  Node Depth Summary
  ******************
  
  ---------------------------------------------------------------------------------
                                 Average  Maximum  Maximum  Time of Max    Reported
                                   Depth    Depth      HGL   Occurrence   Max Depth
  Node                 Type       Meters   Meters   Meters  days hr:min      Meters
  ---------------------------------------------------------------------------------
  WS02001211           JUNCTION     0.77     0.85     5.69     0  02:04        0.85
  WS02001212           JUNCTION     0.48     0.58     5.64     0  02:05        0.58
  WS02001213           JUNCTION     0.71     0.86     5.62     0  02:03        0.86
  WS02003069           JUNCTION     0.50     0.72     5.31     0  02:03        0.72
  WS02003072           JUNCTION     0.56     0.76     5.14     0  02:04        0.76
  WS02003073           JUNCTION     0.34     0.48     4.55     0  02:04        0.48
  WS02003060           JUNCTION     0.44     0.64     5.57     0  02:03        0.64
  WS02003066           JUNCTION     0.23     0.39     5.94     0  01:58        0.39
  WS02003059           JUNCTION     0.76     0.91     5.60     0  02:03        0.91
  WS02003067           JUNCTION     0.56     0.83     6.15     0  01:57        0.83
  WS02004401           JUNCTION     0.70     1.31     7.31     0  01:55        1.25
  WS02004402           JUNCTION     0.73     1.30     7.26     0  01:55        1.23
  WS02004403           JUNCTION     0.74     1.27     7.20     0  01:55        1.20
  WS02004404           JUNCTION     0.82     1.31     7.16     0  01:55        1.24
  WS02004406           JUNCTION     0.81     1.20     7.03     0  01:55        1.17
  WS02004409           JUNCTION     0.50     0.98     6.75     0  01:57        0.98
  WS02004410           JUNCTION     0.52     0.96     6.68     0  01:57        0.96
  WS02004411           JUNCTION     0.53     0.94     6.62     0  01:58        0.94
  WS02004412           JUNCTION     0.54     0.91     6.55     0  01:57        0.91
  WS02004413           JUNCTION     0.69     1.03     6.50     0  01:57        1.03
  WS02004405           JUNCTION     0.81     1.28     7.13     0  01:55        1.22
  WS02006109           JUNCTION     0.80     1.76     8.37     0  01:55        1.75
  WS02006110           JUNCTION     0.78     1.54     8.13     0  01:55        1.52
  WS02006111           JUNCTION     0.26     1.04     7.74     0  01:55        0.94
  WS02006112           JUNCTION     0.88     1.65     7.54     0  01:55        1.60
  WS02006113           JUNCTION     0.36     1.04     7.93     0  01:55        0.99
  WS02006115           JUNCTION     0.60     1.31     7.45     0  01:55        1.25
  WS02006116           JUNCTION     0.68     1.35     7.39     0  01:55        1.28
  WS02006230           JUNCTION     0.80     1.98     8.72     0  01:56        1.98
  WS02006231           JUNCTION     0.55     1.61     8.73     0  01:56        1.61
  WS02006232           JUNCTION     0.68     1.70     8.74     0  01:56        1.70
  WS02006234           JUNCTION     0.60     1.59     8.75     0  01:56        1.59
  WS02006235           JUNCTION     0.63     1.60     8.76     0  01:56        1.59
  WS02006238           JUNCTION     0.65     1.61     8.76     0  01:56        1.60
  WS02006240           JUNCTION     0.53     1.44     8.74     0  01:56        1.44
  WS02006242           JUNCTION     0.57     1.46     8.73     0  01:56        1.45
  WS02006243           JUNCTION     0.44     1.30     8.72     0  01:56        1.29
  WS02006245           JUNCTION     0.41     1.22     8.71     0  01:56        1.22
  WS02006247           JUNCTION     0.41     1.20     8.70     0  01:53        1.19
  WS02006248           JUNCTION     0.35     1.10     8.69     0  01:53        1.10
  WS02006249           JUNCTION     0.37     1.09     8.69     0  01:53        1.09
  WS02006239           JUNCTION     0.60     1.54     8.75     0  01:56        1.53
  WS02006251           JUNCTION     0.34     1.65     9.32     0  02:36        1.15
  WS02006252           JUNCTION     0.21     1.13     9.37     0  02:36        0.70
  WS02006253           JUNCTION     0.37     1.59     9.23     0  02:36        1.17
  WS02006256           JUNCTION     1.81     2.35     9.28     0  00:00        2.35
  WS02004138           JUNCTION     0.19     0.20     7.45     0  00:00        0.19
  WS02004139           JUNCTION     0.72     0.79     5.70     0  02:05        0.79
  WS02004407           JUNCTION     0.22     0.40     6.72     0  01:56        0.40
  WS02006228           JUNCTION     0.82     1.94     8.59     0  01:55        1.93
  WS02006229           JUNCTION     0.80     2.02     8.71     0  01:56        2.01
  WS02006280           JUNCTION     0.08     0.34     8.61     0  01:55        0.32
  WS02006284           JUNCTION     0.39     0.66     9.06     0  01:54        0.66
  WS02006287           JUNCTION     0.12     0.40     9.36     0  01:54        0.40
  WSF200               JUNCTION     0.22     0.44     5.67     0  01:58        0.44
  HS02004901           JUNCTION     0.15     0.38    10.21     0  01:53        0.38
  HS02004881           JUNCTION     0.01     0.06     9.08     0  01:54        0.05
  HS02004876           JUNCTION     0.05     0.17     9.20     0  01:54        0.17
  HS02004870           JUNCTION     0.02     0.10     9.38     0  01:54        0.10
  HS02004862           JUNCTION     0.03     0.11     9.50     0  01:55        0.11
  HS02004856           JUNCTION     0.08     0.15     9.58     0  01:54        0.15
  HS02004852           JUNCTION     0.02     0.08     9.59     0  01:55        0.08
  HS02004848           JUNCTION     0.02     0.07     9.67     0  01:54        0.07
  HS02004842           JUNCTION     0.34     0.40     9.67     0  01:54        0.40
  HS02004837           JUNCTION     0.03     0.09     9.67     0  01:54        0.09
  HS02004830           JUNCTION     0.05     0.11     9.58     0  01:55        0.11
  HS02004824           JUNCTION     0.03     0.15     9.55     0  01:54        0.15
  HS02004817           JUNCTION     0.46     0.71     9.56     0  01:54        0.71
  HS02004807           JUNCTION     0.15     0.38     9.55     0  01:55        0.38
  HS02004802           JUNCTION     0.18     0.41     9.54     0  01:55        0.41
  HS02004799           JUNCTION     0.15     0.48     9.69     0  01:53        0.48
  HS02004792           JUNCTION     0.05     0.22     9.75     0  01:53        0.22
  HS02004788           JUNCTION     0.04     0.16    10.06     0  01:54        0.16
  HS02004785           JUNCTION     0.06     0.25    10.15     0  01:53        0.25
  HS02004777           JUNCTION     0.17     0.40    10.20     0  01:53        0.40
  HS02004770           JUNCTION     0.14     0.37    10.21     0  01:53        0.37
  HS02004480           JUNCTION     0.11     0.39     9.64     0  01:53        0.39
  HS02004479           JUNCTION     0.14     0.43     9.64     0  01:53        0.43
  HS02004478           JUNCTION     0.08     0.29     9.52     0  01:54        0.29
  YS02001745           JUNCTION     0.79     0.97     8.49     0  02:33        0.97
  YS02001748           JUNCTION     1.19     1.41     8.49     0  02:36        1.40
  YS02001751           JUNCTION     1.37     1.60     8.48     0  02:37        1.59
  YS02001754           JUNCTION     1.62     1.86     8.47     0  02:35        1.85
  YS02001762           JUNCTION     1.82     2.06     8.46     0  02:36        2.05
  YS02001765           JUNCTION     1.77     2.01     8.46     0  02:36        2.00
  YS02001767           JUNCTION     1.73     1.96     8.45     0  02:35        1.95
  YS02001770           JUNCTION     1.73     1.94     8.44     0  02:35        1.94
  YS02001774           JUNCTION     1.79     1.99     8.42     0  02:36        1.98
  YS02001779           JUNCTION     1.53     1.68     8.37     0  01:47        1.68
  YS02001882           JUNCTION     0.72     1.67     8.39     0  01:50        1.63
  YS02001884           JUNCTION     0.81     1.77     8.38     0  01:50        1.73
  YS02001759           JUNCTION     1.85     2.10     8.47     0  02:35        2.09
  YS02001887           JUNCTION     0.89     1.82     8.36     0  01:50        1.81
  YS02001890           JUNCTION     0.92     1.81     8.32     0  01:50        1.81
  YS02001898           JUNCTION     0.68     1.57     8.30     0  01:51        1.56
  YS02001901           JUNCTION     0.80     1.68     8.29     0  01:51        1.67
  YS02001904           JUNCTION     0.78     1.64     8.27     0  01:51        1.63
  YS02001907           JUNCTION     1.10     1.96     8.25     0  01:51        1.96
  YS02001910           JUNCTION     0.90     1.94     8.44     0  01:51        1.79
  YS02001915           JUNCTION     0.70     1.84     8.56     0  01:51        1.62
  YS02001918           JUNCTION     0.43     1.70     8.77     0  01:51        1.35
  YS02001619           JUNCTION     1.32     1.57     8.50     0  01:45        1.48
  YS02001629           JUNCTION     1.67     1.85     8.40     0  01:52        1.84
  YS02001641           JUNCTION     1.76     1.93     8.37     0  01:49        1.93
  YS02001644           JUNCTION     1.77     1.92     8.35     0  01:48        1.92
  YS02001652           JUNCTION     1.63     1.96     8.56     0  04:21        1.90
  YS02001655           JUNCTION     1.39     1.80     8.65     0  04:21        1.70
  YS02001920           JUNCTION     0.53     1.89     8.90     0  01:51        1.45
  YS02001923           JUNCTION     0.35     1.71     8.97     0  01:51        1.24
  YS02001926           JUNCTION     0.38     1.90     9.35     0  01:51        1.13
  YS02001929           JUNCTION     0.24     0.97     8.66     0  01:52        0.97
  YS02001658           JUNCTION     1.13     1.58     8.72     0  04:21        1.44
  YS02001661           JUNCTION     0.89     1.66     9.07     0  04:21        1.24
  YS02001664           JUNCTION     0.41     0.56     8.49     0  04:27        0.56
  YS02001622           JUNCTION     1.34     1.57     8.47     0  01:45        1.50
  YS02001633           JUNCTION     1.76     1.95     8.40     0  02:14        1.94
  YS02001649           JUNCTION     1.82     2.05     8.44     0  02:28        2.05
  YS02001757           JUNCTION     1.95     2.20     8.46     0  02:35        2.19
  YS02001895           JUNCTION     0.68     1.57     8.31     0  01:51        1.56
  YS02001625           JUNCTION     1.62     1.78     8.38     0  01:45        1.78
  YS02163301           JUNCTION     1.70     1.88     8.40     0  01:50        1.88
  YS02163601           JUNCTION     1.81     1.99     8.39     0  01:50        1.98
  YS02164001           JUNCTION     1.75     1.92     8.38     0  02:13        1.91
  YS02001647           JUNCTION     1.60     1.80     8.41     0  04:23        1.79
  YSB1154              JUNCTION     0.28     0.58     9.64     0  01:53        0.58
  YSB6556              JUNCTION     0.18     0.47     9.64     0  01:53        0.47
  YSB1174              JUNCTION     0.23     0.53     9.64     0  01:53        0.53
  YSB1171              JUNCTION     0.43     0.74     9.64     0  01:53        0.74
  YS02006553           JUNCTION     1.10     1.97     8.25     0  02:07        1.97
  YS02006561           JUNCTION     0.43     1.10     7.76     0  01:56        1.09
  YS02006556           JUNCTION     1.07     1.93     8.25     0  02:04        1.93
  YS02006558           JUNCTION     1.11     1.98     8.25     0  02:14        1.97
  YS02001783           JUNCTION     0.67     1.63     7.77     0  01:44        1.47
  YS02001784           JUNCTION     0.67     1.70     7.77     0  01:44        1.42
  YS02001786           JUNCTION     0.59     1.52     7.55     0  01:44        1.26
  YS02001788           JUNCTION     0.51     1.45     7.43     0  01:44        1.12
  YS02001790           JUNCTION     0.62     1.96     7.60     0  01:44        1.30
  YS02001791           JUNCTION     0.57     1.82     7.29     0  01:44        1.27
  YS02001793           JUNCTION     0.78     2.53     7.36     0  01:42        1.80
  WSC                  OUTFALL      0.34     0.48     1.15     0  02:05        0.48
  JK-storage           STORAGE      3.10     5.80     6.60     0  01:44        5.80
  CC-storage           STORAGE      1.20     1.46     8.46     0  02:32        1.46
  XR-storage           STORAGE      7.02     7.72     5.72     0  02:06        7.72
  
  
  *******************
  Node Inflow Summary
  *******************
  
  -------------------------------------------------------------------------------------------------
                                  Maximum  Maximum                  Lateral       Total        Flow
                                  Lateral    Total  Time of Max      Inflow      Inflow     Balance
                                   Inflow   Inflow   Occurrence      Volume      Volume       Error
  Node                 Type           LPS      LPS  days hr:min    10^6 ltr    10^6 ltr     Percent
  -------------------------------------------------------------------------------------------------
  WS02001211           JUNCTION      7.35   390.30     0  02:26       0.212        10.5       0.377
  WS02001212           JUNCTION      0.00   393.19     0  02:27           0        10.4       0.207
  WS02001213           JUNCTION      0.00   395.81     0  02:27           0        10.4       0.271
  WS02003069           JUNCTION      0.32  1338.83     0  02:03     0.00922        19.6       0.138
  WS02003072           JUNCTION      0.00  1338.80     0  02:04           0        19.6       0.174
  WS02003073           JUNCTION      1.82  1340.91     0  02:04      0.0524        19.6       0.195
  WS02003060           JUNCTION     16.53  1338.19     0  02:02       0.476        19.6       0.130
  WS02003066           JUNCTION      0.00   954.53     0  01:58           0         8.8       0.030
  WS02003059           JUNCTION      0.00   398.89     0  02:26           0        10.4       0.360
  WS02003067           JUNCTION      0.00   953.85     0  01:58           0        8.81       0.068
  WS02004401           JUNCTION      0.00   968.23     0  01:56           0        8.95       0.138
  WS02004402           JUNCTION      0.00   968.53     0  01:56           0        8.94       0.139
  WS02004403           JUNCTION      0.00   968.62     0  01:56           0        8.93       0.133
  WS02004404           JUNCTION      0.16   969.44     0  01:56     0.00467        8.92       0.107
  WS02004406           JUNCTION      0.00   970.80     0  01:56           0        8.89       0.262
  WS02004409           JUNCTION      0.00   968.68     0  01:56           0        8.87       0.078
  WS02004410           JUNCTION      0.00   956.91     0  01:57           0        8.86       0.102
  WS02004411           JUNCTION      0.00   951.75     0  01:58           0        8.85       0.115
  WS02004412           JUNCTION      0.00   953.57     0  01:58           0        8.84       0.137
  WS02004413           JUNCTION      0.00   953.69     0  01:58           0        8.83       0.226
  WS02004405           JUNCTION      0.04   971.09     0  01:56      0.0011        8.91       0.164
  WS02006109           JUNCTION      1.23   938.79     0  01:56      0.0354         8.9       0.107
  WS02006110           JUNCTION      0.00   938.67     0  01:56           0        8.89       0.105
  WS02006111           JUNCTION      0.00   937.79     0  01:56           0        8.88       0.006
  WS02006112           JUNCTION     30.57   966.47     0  01:56       0.112        8.99       0.191
  WS02006113           JUNCTION      0.00   938.50     0  01:56           0        8.88       0.036
  WS02006115           JUNCTION      0.00   966.91     0  01:56           0        8.97       0.104
  WS02006116           JUNCTION      0.00   967.78     0  01:56           0        8.96       0.113
  WS02006230           JUNCTION     10.28   461.38     0  02:44       0.296        5.79       0.147
  WS02006231           JUNCTION      0.00   451.08     0  02:44           0        5.48      -0.077
  WS02006232           JUNCTION      0.00   451.05     0  02:44           0        5.48       0.131
  WS02006234           JUNCTION      0.00   451.01     0  02:44           0        5.47      -0.070
  WS02006235           JUNCTION      0.00   450.97     0  02:44           0        5.56       0.101
  WS02006238           JUNCTION      0.00   268.73     0  02:44           0        1.96      -0.025
  WS02006240           JUNCTION      0.00   268.69     0  02:44           0        1.88       0.025
  WS02006242           JUNCTION      0.00   268.67     0  02:44           0        1.85       0.074
  WS02006243           JUNCTION      0.00   268.65     0  02:44           0        1.83      -0.049
  WS02006245           JUNCTION      0.00   268.63     0  02:44           0        1.83       0.145
  WS02006247           JUNCTION      0.00   268.62     0  02:44           0        1.83       0.044
  WS02006248           JUNCTION      0.00   268.60     0  02:44           0        1.83      -0.104
  WS02006249           JUNCTION      0.00   453.84     0  02:40           0        1.95       0.169
  WS02006239           JUNCTION      0.00   268.71     0  02:44           0        1.92      -0.034
  WS02006251           JUNCTION      0.08   451.78     0  02:40     0.00222        1.96      -0.072
  WS02006252           JUNCTION      0.00   399.89     0  02:40           0        1.32       0.011
  WS02006253           JUNCTION      3.87   193.14     0  01:54      0.0129       0.626      -0.110
  WS02006256           JUNCTION      0.00   983.00     0  00:00           0        11.5      -0.006
  WS02004138           JUNCTION      0.00   380.00     0  00:00           0        10.3       0.061
  WS02004139           JUNCTION      0.32   396.51     0  00:00     0.00924        10.3       0.432
  WS02004407           JUNCTION      0.00   971.46     0  01:56           0        8.87       0.032
  WS02006228           JUNCTION      0.00   937.40     0  01:56           0        8.87       0.082
  WS02006229           JUNCTION      0.00   991.31     0  01:55           0        8.89       0.106
  WS02006280           JUNCTION      0.00   736.05     0  01:54           0        3.12       0.010
  WS02006284           JUNCTION      0.10   735.80     0  01:54     0.00275        3.12       0.019
  WS02006287           JUNCTION      0.00   735.61     0  01:54           0        3.12       0.023
  WSF200               JUNCTION      0.00   955.05     0  01:58           0         8.8       0.023
  HS02004901           JUNCTION     37.34    37.34     0  01:51       0.136       0.136       1.308
  HS02004881           JUNCTION     14.85   153.29     0  01:54       0.053       0.601       0.083
  HS02004876           JUNCTION     26.74   139.06     0  01:54       0.103       0.549       0.098
  HS02004870           JUNCTION     27.42   112.65     0  01:54         0.1       0.446       0.024
  HS02004862           JUNCTION     26.01    86.18     0  01:54       0.116       0.346       0.049
  HS02004856           JUNCTION     20.52    60.23     0  01:54      0.0756       0.231       0.628
  HS02004852           JUNCTION      0.00    40.37     0  01:54           0       0.155       0.035
  HS02004848           JUNCTION     56.97    56.97     0  01:56       0.261       0.261       0.017
  HS02004842           JUNCTION      0.00    18.18     0  02:06           0       0.119      12.297
  HS02004837           JUNCTION     52.39    67.87     0  01:54       0.357       0.463       0.176
  HS02004830           JUNCTION      0.15    67.98     0  01:54     0.00432       0.453       0.273
  HS02004824           JUNCTION     66.79   134.68     0  01:56       0.319       0.771       0.070
  HS02004817           JUNCTION      0.60   136.93     0  01:57      0.0173       0.788       2.161
  HS02004807           JUNCTION     50.62   184.13     0  01:55       0.184       0.956       0.458
  HS02004802           JUNCTION      0.00   183.90     0  01:56           0       0.955       0.411
  HS02004799           JUNCTION     40.40   470.74     0  01:53        0.15        1.87       0.159
  HS02004792           JUNCTION    183.39   430.97     0  01:53       0.729        1.72       0.023
  HS02004788           JUNCTION     59.53   248.79     0  01:53       0.274       0.992       0.039
  HS02004785           JUNCTION      0.15   189.55     0  01:53     0.00432        0.72       0.068
  HS02004777           JUNCTION      0.03   189.70     0  01:52    0.000864        0.72       0.727
  HS02004770           JUNCTION    153.57   190.37     0  01:52       0.587       0.722       0.428
  HS02004480           JUNCTION      0.00   554.33     0  01:53           0        2.18       0.044
  HS02004479           JUNCTION      0.00    83.75     0  01:53           0       0.323       0.228
  HS02004478           JUNCTION      0.00   735.56     0  01:54           0        3.12       0.010
  YS02001745           JUNCTION    446.25   446.25     0  02:16        3.97        3.97       0.290
  YS02001748           JUNCTION      0.04   449.11     0  02:16      0.0013        3.96       0.577
  YS02001751           JUNCTION      0.01   448.94     0  02:15    0.000317        3.94       0.609
  YS02001754           JUNCTION      0.26   449.48     0  02:15     0.00749        3.92       0.631
  YS02001762           JUNCTION      0.00   432.02     0  01:54           0        2.54       0.835
  YS02001765           JUNCTION      0.00   432.11     0  01:55           0        2.55       0.959
  YS02001767           JUNCTION      0.54   432.82     0  01:55      0.0154        2.57       1.405
  YS02001770           JUNCTION    558.16   776.92     0  02:35        4.38        5.67       0.561
  YS02001774           JUNCTION      0.00   777.02     0  02:35           0        4.37       0.563
  YS02001779           JUNCTION      0.01   776.92     0  02:35    0.000144        4.34       0.359
  YS02001882           JUNCTION      0.00    56.59     0  01:48           0      0.0206       9.791
  YS02001884           JUNCTION      0.00    65.66     0  01:46           0      0.0581      10.813
  YS02001759           JUNCTION    542.57   878.91     0  01:56        4.05        5.28       0.434
  YS02001887           JUNCTION    676.21   677.08     0  02:13        4.58        4.61       0.171
  YS02001890           JUNCTION      0.00   677.22     0  02:13           0        4.57       0.188
  YS02001898           JUNCTION      0.00   521.67     0  01:51           0        4.28       0.058
  YS02001901           JUNCTION      0.00   522.22     0  01:51           0        4.28       0.148
  YS02001904           JUNCTION      0.00   521.35     0  01:51           0        4.28       0.122
  YS02001907           JUNCTION      0.00  1166.91     0  01:52           0          10       0.227
  YS02001910           JUNCTION      0.00   652.78     0  01:52           0        5.77       0.198
  YS02001915           JUNCTION    394.70   652.43     0  01:52         3.3        5.83       0.089
  YS02001918           JUNCTION      0.00   371.39     0  01:52           0        2.56       0.051
  YS02001619           JUNCTION    388.44   388.44     0  02:16        3.32        3.32       0.368
  YS02001629           JUNCTION      0.00   221.42     0  01:48           0        1.44       2.038
  YS02001641           JUNCTION      0.00   455.84     0  01:48           0        5.13       0.413
  YS02001644           JUNCTION    424.99  1620.35     0  02:31        3.84        15.7       0.170
  YS02001652           JUNCTION      0.00   519.29     0  02:09           0        3.44       0.669
  YS02001655           JUNCTION      0.15   518.61     0  02:12     0.00443        3.47       0.727
  YS02001920           JUNCTION      2.87   371.02     0  01:52      0.0827        2.54       0.108
  YS02001923           JUNCTION      0.04   310.81     0  01:53     0.00109        2.44       0.037
  YS02001926           JUNCTION      0.05   324.30     0  01:50      0.0015        2.41       0.130
  YS02001929           JUNCTION    206.66   206.66     0  03:01        2.39         2.4       0.026
  YS02001658           JUNCTION      0.00   518.11     0  02:12           0        3.49       0.691
  YS02001661           JUNCTION      0.00   756.28     0  01:52           0        3.73       0.055
  YS02001664           JUNCTION    496.40   496.40     0  02:16        3.49        3.74       0.164
  YS02001622           JUNCTION      0.00   389.14     0  02:16           0        3.31       0.968
  YS02001633           JUNCTION    431.52   457.93     0  01:48        3.95        5.27       0.608
  YS02001649           JUNCTION      0.00  1001.71     0  01:49           0        8.31       0.448
  YS02001757           JUNCTION      0.00  2146.43     0  01:55           0        9.71       0.945
  YS02001895           JUNCTION      0.00   521.59     0  01:51           0        4.29       0.112
  YS02001625           JUNCTION      0.00   435.35     0  02:16           0        3.36       1.181
  YS02163301           JUNCTION      0.00   221.32     0  01:47           0        1.44       1.695
  YS02163601           JUNCTION      0.11   457.45     0  01:48     0.00317        5.14       0.589
  YS02164001           JUNCTION      0.00   456.87     0  01:48           0        5.12       0.391
  YS02001647           JUNCTION      0.00   846.70     0  02:39           0        7.54       0.375
  YSB1154              JUNCTION     46.91    46.91     0  01:52        0.18       0.181       0.804
  YSB6556              JUNCTION      0.00    46.63     0  01:53           0       0.182       0.694
  YSB1174              JUNCTION     39.22    39.22     0  01:50       0.134       0.134       0.961
  YSB1171              JUNCTION      0.00    84.01     0  01:52           0       0.322       2.010
  YS02006553           JUNCTION      0.00   717.76     0  03:36           0        7.34       0.197
  YS02006561           JUNCTION      0.00   982.52     0  02:14           0        11.5       0.006
  YS02006556           JUNCTION      0.00   718.18     0  03:36           0        7.35       0.133
  YS02006558           JUNCTION    590.63   983.51     0  02:15        4.25        11.6       0.038
  YS02001783           JUNCTION      0.00   982.62     0  02:15           0        11.5       0.014
  YS02001784           JUNCTION      1.06   983.63     0  02:10      0.0305        11.6       0.027
  YS02001786           JUNCTION      0.06   983.36     0  02:12     0.00162        11.6       0.028
  YS02001788           JUNCTION      0.07   983.52     0  02:14     0.00204        11.6       0.016
  YS02001790           JUNCTION      0.15   983.82     0  02:14     0.00446        11.6       0.009
  YS02001791           JUNCTION      0.00   983.89     0  02:14           0        11.6      -0.001
  YS02001793           JUNCTION      0.00   984.32     0  02:11           0        11.6      -0.025
  WSC                  OUTFALL       0.00  1341.27     0  02:05           0        19.6       0.000
  JK-storage           STORAGE       0.00   984.88     0  02:11           0        11.7      -8.103
  CC-storage           STORAGE       0.00  2148.28     0  01:55           0        5.51       1.192
  XR-storage           STORAGE    1054.62  1054.62     0  03:01        15.7        16.3       0.001
  
  
  **********************
  Node Surcharge Summary
  **********************
  
  Surcharging occurs when water rises above the top of the highest conduit.
  ---------------------------------------------------------------------
                                               Max. Height   Min. Depth
                                   Hours       Above Crown    Below Rim
  Node                 Type      Surcharged         Meters       Meters
  ---------------------------------------------------------------------
  WS02004401           JUNCTION        0.84          0.309        1.351
  WS02004402           JUNCTION        0.95          0.296        1.444
  WS02004403           JUNCTION        0.97          0.270        1.760
  WS02004404           JUNCTION        1.36          0.313        2.467
  WS02004406           JUNCTION        1.26          0.204        2.246
  WS02004413           JUNCTION        0.37          0.031        2.169
  WS02004405           JUNCTION        1.34          0.281        2.519
  WS02006109           JUNCTION        2.40          0.937        0.883
  WS02006110           JUNCTION        1.47          0.634        1.216
  WS02006111           JUNCTION        0.29          0.226        1.644
  WS02006112           JUNCTION        1.57          0.654        1.026
  WS02006113           JUNCTION        0.32          0.242        1.688
  WS02006115           JUNCTION        0.53          0.303        1.947
  WS02006116           JUNCTION        0.55          0.287        2.003
  WS02006230           JUNCTION        1.34          0.900        0.670
  WS02006231           JUNCTION        1.38          0.899        0.631
  WS02006232           JUNCTION        2.27          1.003        0.477
  WS02006234           JUNCTION        1.58          0.872        0.368
  WS02006235           JUNCTION        1.86          0.886        0.404
  WS02006238           JUNCTION        1.96          0.892        0.538
  WS02006240           JUNCTION        1.34          0.734        0.656
  WS02006242           JUNCTION        1.40          0.731        0.089
  WS02006243           JUNCTION        1.11          0.588        0.182
  WS02006245           JUNCTION        0.96          0.512        0.338
  WS02006247           JUNCTION        0.94          0.492        0.268
  WS02006248           JUNCTION        0.79          0.380        0.000
  WS02006249           JUNCTION        0.81          0.390        0.000
  WS02006239           JUNCTION        1.54          0.800        0.490
  WS02006251           JUNCTION        0.20          0.624        0.556
  WS02006252           JUNCTION        0.50          0.730        0.370
  WS02006253           JUNCTION        0.44          0.550        1.930
  WS02006256           JUNCTION        6.92          2.050        0.000
  WS02006228           JUNCTION        2.36          1.109        1.091
  HS02004817           JUNCTION        0.15          0.011        1.729
  YS02001748           JUNCTION        6.21          0.332        0.858
  YS02001751           JUNCTION        6.25          0.602        0.598
  YS02001754           JUNCTION        6.30          0.813        0.337
  YS02001762           JUNCTION        6.36          1.059        0.091
  YS02001765           JUNCTION        6.35          1.006        0.094
  YS02001767           JUNCTION        6.34          0.963        0.067
  YS02001770           JUNCTION        6.34          0.914        0.006
  YS02001774           JUNCTION        6.35          0.993        0.057
  YS02001779           JUNCTION        6.30          0.680        0.000
  YS02001882           JUNCTION        1.82          0.675        0.155
  YS02001884           JUNCTION        1.83          0.705        0.165
  YS02001759           JUNCTION        6.37          1.102        0.108
  YS02001887           JUNCTION        1.88          0.775        0.175
  YS02001890           JUNCTION        1.91          0.760        0.000
  YS02001898           JUNCTION        1.78          0.537        0.203
  YS02001901           JUNCTION        1.86          0.681        0.189
  YS02001904           JUNCTION        1.85          0.637        0.213
  YS02001907           JUNCTION        2.41          0.950        0.000
  YS02001910           JUNCTION        1.94          0.938        0.162
  YS02001915           JUNCTION        1.81          0.839        0.161
  YS02001918           JUNCTION        1.67          0.704        0.106
  YS02001619           JUNCTION        6.26          0.571        0.039
  YS02001629           JUNCTION        6.25          0.466        0.004
  YS02001641           JUNCTION        6.35          0.935        0.165
  YS02001644           JUNCTION        6.35          0.920        0.000
  YS02001652           JUNCTION        6.32          0.932        0.198
  YS02001655           JUNCTION        6.26          0.804        0.396
  YS02001920           JUNCTION        1.69          0.891        0.249
  YS02001923           JUNCTION        0.01          0.500        0.320
  YS02001926           JUNCTION        0.01          0.900        0.000
  YS02001658           JUNCTION        6.21          0.581        0.719
  YS02001661           JUNCTION        0.18          0.593        0.797
  YS02001622           JUNCTION        6.26          0.567        0.053
  YS02001633           JUNCTION        6.34          0.927        0.133
  YS02001649           JUNCTION        6.36          1.050        0.000
  YS02001757           JUNCTION        6.39          1.202        0.008
  YS02001895           JUNCTION        1.80          0.567        0.183
  YS02001625           JUNCTION        6.32          0.780        0.000
  YS02163301           JUNCTION        6.33          0.882        0.148
  YS02163601           JUNCTION        6.36          0.989        0.091
  YS02164001           JUNCTION        6.34          0.917        0.183
  YS02001647           JUNCTION        6.32          0.799        0.101
  YS02006553           JUNCTION        2.46          0.971        0.219
  YS02006561           JUNCTION        1.71          0.295        0.855
  YS02006556           JUNCTION        2.11          0.894        0.456
  YS02006558           JUNCTION        2.08          0.879        0.521
  YS02001783           JUNCTION        1.95          0.828        0.772
  YS02001784           JUNCTION        1.93          0.902        0.588
  YS02001786           JUNCTION        1.87          0.716        0.714
  YS02001788           JUNCTION        1.82          0.654        0.826
  YS02001790           JUNCTION        2.77          1.157        0.000
  YS02001791           JUNCTION        2.86          1.016        0.904
  YS02001793           JUNCTION        3.11          1.529        1.071
  
  
  *********************
  Node Flooding Summary
  *********************
  
  Flooding refers to all water that overflows a node, whether it ponds or not.
  --------------------------------------------------------------------------
                                                             Total   Maximum
                                 Maximum   Time of Max       Flood    Ponded
                        Hours       Rate    Occurrence      Volume     Depth
  Node                 Flooded       LPS   days hr:min    10^6 ltr    Meters
  --------------------------------------------------------------------------
  WS02006248              0.16     58.62      0  01:57       0.013     0.000
  WS02006249              0.42    188.31      0  02:40       0.117     0.000
  WS02006256              3.98    978.40      0  00:00       7.859     0.000
  YS02001779              3.81    776.87      0  02:35       4.326     0.000
  YS02001890              0.81    160.75      0  02:12       0.273     0.000
  YS02001907              1.53    715.52      0  02:16       2.681     0.000
  YS02001644              6.19   1620.35      0  02:31      14.810     0.000
  YS02001926              0.01    212.89      0  01:51       0.000     0.000
  YS02001649              0.17     75.63      0  02:35       0.026     0.000
  YS02001625              2.12    435.09      0  02:16       1.967     0.000
  YS02001790              0.01    182.44      0  01:44       0.000     0.000
  JK-storage              0.95    866.78      0  01:50       1.106     0.000
  XR-storage              4.70    674.60      0  03:01       5.154     0.000
  
  
  **********************
  Storage Volume Summary
  **********************
  
  --------------------------------------------------------------------------------------------------
                         Average     Avg  Evap Exfil       Maximum     Max    Time of Max    Maximum
                          Volume    Pcnt  Pcnt  Pcnt        Volume    Pcnt     Occurrence    Outflow
  Storage Unit           1000 m3    Full  Loss  Loss       1000 m3    Full    days hr:min        LPS
  --------------------------------------------------------------------------------------------------
  JK-storage               0.156      54     0     0         0.291     100       0  01:44     983.00
  CC-storage               3.349      21     0     0         4.069      26       0  02:32     399.89
  XR-storage               0.842      91     0     0         0.926     100       0  02:06     380.00
  
  
  ***********************
  Outfall Loading Summary
  ***********************
  
  ---------------------------------------------------------------------------------------------------------------------------------
                         Flow       Avg       Max       Total         Total         Total         Total         Total         Total
                         Freq      Flow      Flow      Volume           COD            SS            TN            TP         NH4-N
  Outfall Node           Pcnt       LPS       LPS    10^6 ltr            kg            kg            kg            kg            kg
  ---------------------------------------------------------------------------------------------------------------------------------
  WSC                   99.98    739.45   1341.27      19.574      2463.032      4375.593       142.226        16.437        85.191
  ---------------------------------------------------------------------------------------------------------------------------------
  System                99.98    739.45   1341.27      19.574      2463.032      4375.593       142.226        16.437        85.191
  
  
  ********************
  Link Flow Summary
  ********************
  
  -----------------------------------------------------------------------------
                                 Maximum  Time of Max   Maximum    Max/    Max/
                                  |Flow|   Occurrence   |Veloc|    Full    Full
  Link                 Type          LPS  days hr:min     m/sec    Flow   Depth
  -----------------------------------------------------------------------------
  WS02003066WSF200     CONDUIT    955.05     0  01:58      3.01    0.16    0.32
  WS02006287WS02006284 CONDUIT    735.70     0  01:54      2.45    0.34    0.41
  WS02006284WS02006280 CONDUIT    736.05     0  01:54      2.68    0.31    0.38
  WS02006280WS02006229 CONDUIT    759.17     0  01:55      4.30    0.16    0.58
  WS02006229WS02006228 CONDUIT    937.40     0  01:56      1.86    3.10    1.00
  WS02006256WS02006235 CONDUIT    288.60     0  00:00      4.23    3.05    1.00
  WS02006253WS02006251 CONDUIT    189.09     0  01:54      0.76    0.57    1.00
  WS02006252WS02006251 CONDUIT    399.59     0  02:40      3.18    1.47    1.00
  WS02006251WS02006249 CONDUIT    453.84     0  02:40      1.18    1.31    1.00
  WS02006249WS02006248 CONDUIT    268.60     0  02:44      1.00    1.47    1.00
  WS02006248WS02006247 CONDUIT    268.62     0  02:44      0.95    0.58    1.00
  WS02006247WS02006245 CONDUIT    268.63     0  02:44      0.92    2.13    1.00
  WS02006245WS02006243 CONDUIT    268.65     0  02:44      0.98    0.79    1.00
  WS02006243WS02006242 CONDUIT    268.67     0  02:44      0.85    0.57    1.00
  WS02006242WS02006240 CONDUIT    268.69     0  02:44      0.90    1.07    1.00
  WS02006240WS02006239 CONDUIT    268.71     0  02:44      0.86    0.85    1.00
  WS02006239WS02006238 CONDUIT    268.73     0  02:44      0.88    0.86    1.00
  WS02006238WS02006235 CONDUIT    268.76     0  02:44      1.46    0.60    1.00
  WS02006235WS02006234 CONDUIT    451.01     0  02:44      1.17    4.76    1.00
  WS02006234WS02006232 CONDUIT    451.05     0  02:44      1.39    0.91    1.00
  WS02006232WS02006231 CONDUIT    451.08     0  02:44      1.17    0.95    1.00
  WS02006231WS02006230 CONDUIT    451.11     0  02:44      1.35    6.84    1.00
  WS02006230WS02006229 CONDUIT    461.44     0  02:45      1.20   10.27    1.00
  WS02006228WS02006109 CONDUIT    937.56     0  01:56      1.87    4.10    1.00
  WS02006116WS02004401 CONDUIT    968.23     0  01:56      1.23    1.33    1.00
  WS02006115WS02006116 CONDUIT    967.78     0  01:56      1.23    1.24    1.00
  WS02006113WS02006111 CONDUIT    937.79     0  01:56      2.60    1.12    1.00
  WS02006112WS02006115 CONDUIT    966.91     0  01:56      1.23    0.57    1.00
  WS02006111WS02006112 CONDUIT    937.72     0  01:56      1.87    0.45    1.00
  WS02006110WS02006113 CONDUIT    938.50     0  01:56      1.87    0.85    1.00
  WS02006109WS02006110 CONDUIT    938.67     0  01:56      1.87    1.80    1.00
  WS02004411WS02004412 CONDUIT    953.57     0  01:58      1.26    1.35    0.93
  WS02004401WS02004402 CONDUIT    968.53     0  01:56      1.23    1.16    1.00
  WS02004413WS02003067 CONDUIT    953.85     0  01:58      1.57    0.41    0.72
  WS02004412WS02004413 CONDUIT    953.69     0  01:58      1.23    0.64    0.96
  WS02004410WS02004411 CONDUIT    951.75     0  01:58      1.24    1.30    0.95
  WS02004409WS02004410 CONDUIT    956.91     0  01:57      1.24    1.24    0.97
  WS02004407WS02004409 CONDUIT    968.68     0  01:56      1.73    0.34    0.69
  WS02004406WS02004407 CONDUIT    971.46     0  01:56      1.65    0.43    0.70
  WS02004405WS02004406 CONDUIT    970.80     0  01:56      1.24    1.91    1.00
  WS02004404WS02004405 CONDUIT    971.05     0  01:56      1.24    9.51    1.00
  WS02004403WS02004404 CONDUIT    969.28     0  01:56      1.23    0.70    1.00
  WS02004402WS02004403 CONDUIT    968.62     0  01:56      1.23    1.39    1.00
  WS02004139WS02001211 CONDUIT    382.95     0  02:26      0.90    0.48    0.64
  WS02004138WS02004139 CONDUIT    396.19     0  00:00      3.65    0.08    0.47
  WS02003067WS02003066 CONDUIT    954.53     0  01:58      1.66    0.31    0.51
  WS02001213WS02003059 CONDUIT    398.89     0  02:26      0.88    0.66    0.87
  WS02001212WS02001213 CONDUIT    395.81     0  02:27      1.32    0.61    0.56
  WS02001211WS02001212 CONDUIT    393.19     0  02:27      0.78    0.30    0.71
  WS02003072WS02003073 CONDUIT   1339.09     0  02:04      1.96    2.89    0.58
  WS02003069WS02003072 CONDUIT   1338.80     0  02:04      1.82    0.64    0.62
  WS02003060WS02003069 CONDUIT   1338.51     0  02:03      2.03    0.52    0.57
  WS02003059WS02003060 CONDUIT    402.67     0  02:26      0.95    0.26    0.77
  HS02004901HS02004770 CONDUIT     36.83     0  01:52      0.10    0.14    0.54
  HS02004876HS02004881 CONDUIT    139.06     0  01:54      1.26    1.48    0.16
  HS02004870HS02004876 CONDUIT    112.62     0  01:54      0.85    0.07    0.19
  HS02004842HS02004848 CONDUIT     18.18     0  02:06      0.08    0.01    0.34
  HS02004837HS02004842 CONDUIT     18.64     0  02:07      0.42    0.01    0.35
  HS02004830HS02004837 CONDUIT     67.83     0  01:54      0.68    0.07    0.14
  HS02004824HS02004830 CONDUIT     68.05     0  01:56      0.62    0.09    0.18
  HS02004817HS02004824 CONDUIT    136.33     0  01:57      0.32    0.06    0.60
  HS02004770HS02004777 CONDUIT    189.67     0  01:52      0.49    0.35    0.55
  HS02004799HS02004480 CONDUIT    470.62     0  01:53      1.09    0.59    0.62
  HS02004792HS02004799 CONDUIT    430.86     0  01:53      1.22    0.26    0.50
  HS02004788HS02004792 CONDUIT    248.72     0  01:54      1.29    0.16    0.28
  HS02004785HS02004788 CONDUIT    189.52     0  01:53      0.92    1.43    0.30
  HS02004777HS02004785 CONDUIT    189.40     0  01:53      0.59    0.23    0.46
  HS02004480HS02004478 CONDUIT    554.36     0  01:53      1.59    2.33    0.50
  HS02004479HS02004480 CONDUIT     83.72     0  01:53      0.37    0.08    0.59
  HS02004862HS02004870 CONDUIT     86.17     0  01:55      0.82    0.09    0.15
  HS02004848HS02004852 CONDUIT     40.37     0  01:54      0.54    0.05    0.11
  HS02004856HS02004862 CONDUIT     60.18     0  01:54      0.61    0.06    0.14
  HS02004852HS02004856 CONDUIT     40.43     0  01:55      0.35    0.05    0.17
  HS02004802HS02004478 CONDUIT    184.71     0  01:57      0.53    0.16    0.50
  HS02004478WS02006287 CONDUIT    735.61     0  01:54      2.18    0.21    0.38
  HS02004817HS02004807 CONDUIT    137.14     0  01:57      0.26    0.08    0.77
  HS02004807HS02004802 CONDUIT    183.90     0  01:56      0.47    0.35    0.56
  YS02001759YS02001757 CONDUIT    877.98     0  01:56      1.12    0.62    1.00
  YS02001762YS02001759 CONDUIT    432.26     0  01:55      0.55    0.50    1.00
  YS02001765YS02001762 CONDUIT    432.02     0  01:54      0.55    0.41    1.00
  YS02001770YS02001767 CONDUIT    432.28     0  01:55      0.55    1.71    1.00
  YS02001774YS02001770 CONDUIT    777.02     0  02:35      0.99    0.50    1.00
  YS02001779YS02001774 CONDUIT    776.91     0  02:35      0.99    0.39    1.00
  YS02001649YS02001757 CONDUIT   1001.65     0  01:49      1.28    0.61    1.00
  YS02001767YS02001765 CONDUIT    432.11     0  01:55      0.55    0.54    1.00
  YS02006561YS02001783 CONDUIT    982.62     0  02:15      2.14    0.51    1.00
  YS02001783YS02001784 CONDUIT    982.57     0  02:10      1.95    1.35    1.00
  YS02001784YS02001785 CONDUIT    983.31     0  02:12      1.96    2.29    1.00
  YS02001788YS02001790 CONDUIT    983.66     0  02:14      2.44    0.72    1.00
  YS02001790YS02001791 CONDUIT    983.89     0  02:14      2.90    1.07    1.00
  YS02001791YS02001793 CONDUIT    984.32     0  02:11      5.75    0.42    1.00
  YS02001910YS02001907 CONDUIT    653.11     0  01:52      0.83    0.37    1.00
  YS02001786YS02001788 CONDUIT    983.45     0  02:14      2.31    1.89    1.00
  YS02001915YS02001910 CONDUIT    652.78     0  01:52      0.83    0.32    1.00
  YS02001918YS02001915 CONDUIT    372.43     0  01:52      0.48    0.21    1.00
  YS02001923YS02001920 CONDUIT    368.15     0  01:52      0.81    0.17    1.00
  YS02001926YS02001923 CONDUIT    310.77     0  01:53      0.92    0.44    1.00
  YS02001929YS02001926 CONDUIT    255.42     0  01:52      0.98    0.12    0.99
  YS02001920YS02001918 CONDUIT    371.39     0  01:52      0.77    0.36    1.00
  YS02001629YS02163301 CONDUIT    221.32     0  01:47      0.28    0.27    1.00
  YS02001619YS02001622 CONDUIT    389.14     0  02:16      0.74    0.57    1.00
  YS02001622YS02001625 CONDUIT    388.61     0  02:15      0.49    0.21    1.00
  YS02001625YS02001629 CONDUIT    221.42     0  01:48      0.29    0.11    1.00
  YS02163301YS02001633 CONDUIT    222.72     0  01:47      0.28    0.21    1.00
  YS02163601YS02164001 CONDUIT    456.87     0  01:48      0.58    0.40    1.00
  YS02164001YS02001641 CONDUIT    455.84     0  01:48      0.58    0.62    1.00
  YS02001641YS02001644 CONDUIT    454.94     0  01:48      0.58    1.47    1.00
  YS02001647YS02001649 CONDUIT    846.70     0  02:39      1.08    0.45    1.00
  YS02006553YS02006556 CONDUIT    718.18     0  03:36      0.91    0.61    1.00
  YS02006556YS02006558 CONDUIT    717.88     0  03:36      0.91    0.57    1.00
  YSB6556YSB1171       CONDUIT     46.63     0  01:54      0.14    0.05    0.84
  YS02001907YS02006553 CONDUIT    717.76     0  03:36      0.80    0.84    1.00
  YS02006558YS02006561 CONDUIT    982.52     0  02:14      3.47    2.17    1.00
  YS02001633YS02163601 CONDUIT    457.34     0  01:48      0.58    0.48    1.00
  YS02001644YS02001647 CONDUIT    846.70     0  02:39      1.08    0.50    1.00
  YS02001745YS02001748 CONDUIT    449.07     0  02:16      1.67    0.17    0.99
  YS02001748YS02001751 CONDUIT    448.93     0  02:15      1.21    0.23    1.00
  YS02001751YS02001754 CONDUIT    449.22     0  02:15      1.02    0.22    1.00
  YS02001754YS02001757 CONDUIT    449.91     0  02:15      0.57    0.18    1.00
  YS02001882YS02001884 CONDUIT     56.59     0  01:48      0.16    0.06    1.00
  YS02001884YS02001887 CONDUIT     65.66     0  01:46      0.12    0.09    1.00
  YS02001890YS02001895 CONDUIT    521.59     0  01:51      0.66    0.24    1.00
  YS02001895YS02001898 CONDUIT    521.67     0  01:51      0.66    0.91    1.00
  YS02001898YS02001901 CONDUIT    522.22     0  01:51      0.66    0.34    1.00
  YS02001901YS02001904 CONDUIT    521.35     0  01:51      0.66    0.81    1.00
  YS02001904YS02001907 CONDUIT    523.12     0  01:50      0.67    0.18    1.00
  YS02001887YS02001890 CONDUIT    677.22     0  02:13      0.86    1.16    1.00
  YS02001652YS02001649 CONDUIT    521.36     0  02:09      0.71    0.26    1.00
  YS02001655YS02001652 CONDUIT    519.29     0  02:09      1.09    0.25    1.00
  YS02001658YS02001655 CONDUIT    518.45     0  02:12      1.41    0.22    1.00
  YS02001661YS02001658 CONDUIT    518.11     0  02:12      1.78    0.20    1.00
  YS02001664YS02001661 CONDUIT    756.28     0  01:52      1.69    0.24    0.77
  YSB1154YSB6556       CONDUIT     46.63     0  01:53      0.15    0.08    0.75
  YSB1174YSB1171       CONDUIT     38.39     0  01:50      0.11    0.06    0.87
  YSB1171HS02004479    CONDUIT     83.75     0  01:53      0.54    0.06    0.70
  HS02004881HS02006253 CONDUIT    157.89     0  01:54      2.75    0.03    0.54
  YS02001793JiankangQianchi CONDUIT    984.88     0  02:11     16.37    0.08    1.00
  YS02001757CaochengTiaoxuchi CONDUIT   2148.28     0  01:55      3.55    0.94    1.00
  WSF200WS02003060     CONDUIT    955.98     0  01:58      1.97    0.21    0.45
  1                    CONDUIT   1341.27     0  02:05      3.59    0.47    0.48
  CC-Pump-1            PUMP       200.00     0  04:10              1.00
  CC-Pump-2            PUMP       199.95     0  02:40              1.00
  JK-Pump-1            PUMP       300.00     0  00:00              1.00
  JK-Pump-2            PUMP       683.00     0  00:00              1.00
  XR-Pump-1            PUMP        95.00     0  00:00              1.00
  XR-Pump-2            PUMP        95.00     0  00:00              1.00
  XR-Pump-3            PUMP        95.00     0  00:00              1.00
  XR-Pump-4            PUMP        95.00     0  00:00              1.00
  
  
  ***************************
  Flow Classification Summary
  ***************************
  
  -------------------------------------------------------------------------------------
                      Adjusted    ---------- Fraction of Time in Flow Class ---------- 
                       /Actual         Up    Down  Sub   Sup   Up    Down  Norm  Inlet 
  Conduit               Length    Dry  Dry   Dry   Crit  Crit  Crit  Crit  Ltd   Ctrl  
  -------------------------------------------------------------------------------------
  WS02003066WSF200        1.00   0.02  0.06  0.00  0.00  0.92  0.00  0.00  0.56  0.00
  WS02006287WS02006284    1.00   0.03  0.01  0.00  0.56  0.39  0.00  0.00  0.64  0.00
  WS02006284WS02006280    1.00   0.04  0.00  0.00  0.00  0.00  0.00  0.96  0.00  0.00
  WS02006280WS02006229    1.00   0.04  0.00  0.00  0.02  0.03  0.00  0.91  0.01  0.00
  WS02006229WS02006228    1.00   0.00  0.00  0.00  1.00  0.00  0.00  0.00  0.00  0.00
  WS02006256WS02006235    1.00   0.00  0.00  0.00  1.00  0.00  0.00  0.00  0.00  0.00
  WS02006253WS02006251    1.00   0.02  0.02  0.00  0.95  0.00  0.01  0.00  0.00  0.00
  WS02006252WS02006251    1.00   0.12  0.00  0.00  0.08  0.00  0.80  0.00  0.00  0.00
  WS02006251WS02006249    1.00   0.00  0.00  0.00  1.00  0.00  0.00  0.00  0.40  0.00
  WS02006249WS02006248    1.00   0.00  0.01  0.00  0.85  0.00  0.14  0.00  0.00  0.00
  WS02006248WS02006247    1.00   0.01  0.00  0.00  0.97  0.00  0.00  0.02  0.18  0.00
  WS02006247WS02006245    1.00   0.01  0.00  0.00  0.95  0.00  0.00  0.05  0.00  0.00
  WS02006245WS02006243    1.00   0.00  0.00  0.00  0.92  0.00  0.00  0.08  0.01  0.00
  WS02006243WS02006242    1.00   0.00  0.00  0.00  0.99  0.00  0.00  0.00  0.33  0.00
  WS02006242WS02006240    1.00   0.00  0.00  0.00  0.99  0.00  0.01  0.00  0.00  0.00
  WS02006240WS02006239    1.00   0.00  0.00  0.00  0.93  0.00  0.00  0.07  0.02  0.00
  WS02006239WS02006238    1.00   0.00  0.00  0.00  1.00  0.00  0.00  0.00  0.13  0.00
  WS02006238WS02006235    1.00   0.00  0.00  0.00  1.00  0.00  0.00  0.00  0.00  0.00
  WS02006235WS02006234    1.00   0.00  0.00  0.00  0.95  0.00  0.05  0.00  0.00  0.00
  WS02006234WS02006232    1.00   0.00  0.00  0.00  1.00  0.00  0.00  0.00  0.08  0.00
  WS02006232WS02006231    1.00   0.00  0.00  0.00  1.00  0.00  0.00  0.00  0.00  0.00
  WS02006231WS02006230    1.00   0.00  0.00  0.00  0.60  0.00  0.40  0.00  0.00  0.00
  WS02006230WS02006229    1.00   0.00  0.00  0.00  1.00  0.00  0.00  0.00  0.01  0.00
  WS02006228WS02006109    1.00   0.00  0.00  0.00  1.00  0.00  0.00  0.00  0.00  0.00
  WS02006116WS02004401    1.00   0.01  0.00  0.00  0.99  0.00  0.00  0.00  0.01  0.00
  WS02006115WS02006116    1.00   0.01  0.00  0.00  0.97  0.00  0.00  0.02  0.01  0.00
  WS02006113WS02006111    1.00   0.01  0.00  0.00  0.06  0.94  0.00  0.00  0.19  0.00
  WS02006112WS02006115    1.00   0.01  0.00  0.00  0.99  0.00  0.00  0.00  0.00  0.00
  WS02006111WS02006112    1.00   0.01  0.00  0.00  0.99  0.00  0.00  0.00  0.82  0.00
  WS02006110WS02006113    1.00   0.00  0.00  0.00  0.99  0.00  0.00  0.00  0.00  0.00
  WS02006109WS02006110    1.00   0.00  0.00  0.00  0.99  0.00  0.00  0.00  0.00  0.00
  WS02004411WS02004412    1.00   0.06  0.00  0.00  0.94  0.00  0.00  0.00  0.00  0.00
  WS02004401WS02004402    1.00   0.01  0.00  0.00  0.99  0.00  0.00  0.00  0.01  0.00
  WS02004413WS02003067    1.00   0.07  0.01  0.00  0.00  0.00  0.92  0.00  0.00  0.00
  WS02004412WS02004413    1.00   0.06  0.00  0.00  0.93  0.00  0.00  0.00  0.00  0.00
  WS02004410WS02004411    1.00   0.06  0.00  0.00  0.94  0.00  0.00  0.00  0.00  0.00
  WS02004409WS02004410    1.00   0.06  0.00  0.00  0.94  0.00  0.00  0.00  0.00  0.00
  WS02004407WS02004409    1.00   0.06  0.00  0.00  0.93  0.01  0.00  0.00  0.82  0.00
  WS02004406WS02004407    1.00   0.00  0.06  0.00  0.94  0.00  0.00  0.00  0.00  0.00
  WS02004405WS02004406    1.00   0.00  0.00  0.00  1.00  0.00  0.00  0.00  0.02  0.00
  WS02004404WS02004405    1.00   0.00  0.00  0.00  1.00  0.00  0.00  0.00  0.00  0.00
  WS02004403WS02004404    1.00   0.00  0.01  0.00  0.99  0.00  0.00  0.00  0.02  0.00
  WS02004402WS02004403    1.00   0.01  0.00  0.00  0.99  0.00  0.00  0.00  0.00  0.00
  WS02004139WS02001211    1.00   0.00  0.00  0.00  1.00  0.00  0.00  0.00  0.00  0.00
  WS02004138WS02004139    1.00   0.00  0.00  0.00  1.00  0.00  0.00  0.00  1.00  0.00
  WS02003067WS02003066    1.00   0.08  0.00  0.00  0.92  0.00  0.00  0.00  0.00  0.00
  WS02001213WS02003059    1.00   0.00  0.00  0.00  1.00  0.00  0.00  0.00  0.00  0.00
  WS02001212WS02001213    1.00   0.00  0.00  0.00  0.91  0.00  0.09  0.00  0.00  0.00
  WS02001211WS02001212    1.00   0.00  0.00  0.00  1.00  0.00  0.00  0.00  0.00  0.00
  WS02003072WS02003073    1.00   0.00  0.00  0.00  0.00  0.00  0.00  1.00  0.00  0.00
  WS02003069WS02003072    1.00   0.00  0.00  0.00  1.00  0.00  0.00  0.00  0.06  0.00
  WS02003060WS02003069    1.00   0.00  0.00  0.00  0.99  0.01  0.00  0.00  0.05  0.00
  WS02003059WS02003060    1.00   0.00  0.00  0.00  1.00  0.00  0.00  0.00  0.00  0.00
  HS02004901HS02004770    1.00   0.04  0.00  0.00  0.96  0.00  0.00  0.00  0.00  0.00
  HS02004876HS02004881    1.00   0.01  0.00  0.00  0.87  0.12  0.00  0.00  0.00  0.00
  HS02004870HS02004876    1.00   0.00  0.00  0.00  0.99  0.00  0.00  0.00  0.95  0.00
  HS02004842HS02004848    1.00   0.00  0.04  0.00  0.96  0.00  0.00  0.00  0.57  0.00
  HS02004837HS02004842    1.00   0.00  0.00  0.00  1.00  0.00  0.00  0.00  0.11  0.00
  HS02004830HS02004837    1.00   0.00  0.00  0.00  1.00  0.00  0.00  0.00  0.99  0.00
  HS02004824HS02004830    1.00   0.00  0.00  0.00  1.00  0.00  0.00  0.00  0.03  0.00
  HS02004817HS02004824    1.00   0.00  0.00  0.00  1.00  0.00  0.00  0.00  0.92  0.00
  HS02004770HS02004777    1.00   0.00  0.04  0.00  0.96  0.00  0.00  0.00  0.02  0.00
  HS02004799HS02004480    1.00   0.00  0.01  0.00  0.95  0.00  0.03  0.00  0.00  0.00
  HS02004792HS02004799    1.00   0.00  0.00  0.00  1.00  0.00  0.00  0.00  0.98  0.00
  HS02004788HS02004792    1.00   0.00  0.00  0.00  1.00  0.00  0.00  0.00  0.98  0.00
  HS02004785HS02004788    1.00   0.00  0.00  0.00  1.00  0.00  0.00  0.00  0.00  0.00
  HS02004777HS02004785    1.00   0.00  0.00  0.00  1.00  0.00  0.00  0.00  0.11  0.00
  HS02004480HS02004478    1.00   0.04  0.00  0.00  0.63  0.00  0.00  0.32  0.00  0.00
  HS02004479HS02004480    1.00   0.01  0.00  0.00  0.99  0.00  0.00  0.00  0.11  0.00
  HS02004862HS02004870    1.00   0.00  0.00  0.00  1.00  0.00  0.00  0.00  0.02  0.00
  HS02004848HS02004852    1.00   0.04  0.00  0.00  0.96  0.00  0.00  0.00  0.79  0.00
  HS02004856HS02004862    1.00   0.00  0.05  0.00  0.95  0.00  0.00  0.00  0.84  0.00
  HS02004852HS02004856    1.00   0.04  0.00  0.00  0.96  0.00  0.00  0.00  0.77  0.00
  HS02004802HS02004478    1.00   0.04  0.00  0.00  0.96  0.00  0.00  0.00  0.02  0.00
  HS02004478WS02006287    1.00   0.05  0.00  0.00  0.68  0.28  0.00  0.00  0.62  0.00
  HS02004817HS02004807    1.00   0.00  0.04  0.00  0.96  0.00  0.00  0.00  0.01  0.00
  HS02004807HS02004802    1.00   0.04  0.00  0.00  0.95  0.00  0.00  0.00  0.00  0.00
  YS02001759YS02001757    1.00   0.00  0.00  0.00  1.00  0.00  0.00  0.00  0.15  0.00
  YS02001762YS02001759    1.00   0.00  0.00  0.00  1.00  0.00  0.00  0.00  0.02  0.00
  YS02001765YS02001762    1.00   0.00  0.00  0.00  1.00  0.00  0.00  0.00  0.13  0.00
  YS02001770YS02001767    1.00   0.00  0.00  0.00  1.00  0.00  0.00  0.00  0.00  0.00
  YS02001774YS02001770    1.00   0.00  0.04  0.00  0.96  0.00  0.00  0.00  0.02  0.00
  YS02001779YS02001774    1.00   0.00  0.00  0.00  1.00  0.00  0.00  0.00  0.16  0.00
  YS02001649YS02001757    1.00   0.00  0.00  0.00  1.00  0.00  0.00  0.00  0.15  0.00
  YS02001767YS02001765    1.00   0.00  0.00  0.00  1.00  0.00  0.00  0.00  0.00  0.00
  YS02006561YS02001783    1.00   0.05  0.00  0.00  0.42  0.52  0.00  0.00  0.45  0.00
  YS02001783YS02001784    1.00   0.00  0.05  0.00  0.95  0.00  0.00  0.00  0.00  0.00
  YS02001784YS02001785    1.00   0.00  0.00  0.00  1.00  0.00  0.00  0.00  0.16  0.00
  YS02001788YS02001790    1.00   0.00  0.00  0.00  0.46  0.54  0.00  0.00  0.36  0.00
  YS02001790YS02001791    1.00   0.00  0.00  0.00  0.41  0.59  0.00  0.00  0.41  0.00
  YS02001791YS02001793    1.00   0.00  0.00  0.00  0.44  0.56  0.00  0.00  0.02  0.00
  YS02001910YS02001907    1.00   0.00  0.00  0.00  0.99  0.00  0.00  0.01  0.12  0.00
  YS02001786YS02001788    1.00   0.00  0.00  0.00  0.44  0.56  0.00  0.00  0.00  0.00
  YS02001915YS02001910    1.00   0.00  0.00  0.00  0.99  0.01  0.00  0.00  0.13  0.00
  YS02001918YS02001915    1.00   0.00  0.00  0.00  0.99  0.01  0.00  0.00  0.52  0.00
  YS02001923YS02001920    1.00   0.00  0.00  0.00  1.00  0.00  0.00  0.00  0.75  0.00
  YS02001926YS02001923    1.00   0.00  0.02  0.00  0.26  0.00  0.71  0.00  0.00  0.00
  YS02001929YS02001926    1.00   0.00  0.04  0.00  0.96  0.00  0.00  0.00  0.66  0.00
  YS02001920YS02001918    1.00   0.00  0.00  0.00  1.00  0.00  0.00  0.00  0.00  0.00
  YS02001629YS02163301    1.00   0.05  0.00  0.00  0.95  0.00  0.00  0.00  0.00  0.00
  YS02001619YS02001622    1.00   0.04  0.00  0.00  0.96  0.00  0.00  0.00  0.00  0.00
  YS02001622YS02001625    1.00   0.04  0.00  0.00  0.96  0.00  0.00  0.00  0.03  0.00
  YS02001625YS02001629    1.00   0.04  0.01  0.00  0.93  0.00  0.02  0.00  0.00  0.00
  YS02163301YS02001633    1.00   0.00  0.04  0.00  0.96  0.00  0.00  0.00  0.00  0.00
  YS02163601YS02164001    1.00   0.00  0.03  0.00  0.97  0.00  0.00  0.00  0.00  0.00
  YS02164001YS02001641    1.00   0.00  0.02  0.00  0.97  0.00  0.00  0.00  0.05  0.00
  YS02001641YS02001644    1.00   0.00  0.00  0.00  1.00  0.00  0.00  0.00  0.00  0.00
  YS02001647YS02001649    1.00   0.00  0.05  0.00  0.95  0.00  0.00  0.00  0.01  0.00
  YS02006553YS02006556    1.00   0.01  0.00  0.00  0.99  0.00  0.00  0.00  0.03  0.00
  YS02006556YS02006558    1.00   0.00  0.00  0.00  1.00  0.00  0.00  0.00  0.00  0.00
  YSB6556YSB1171          1.00   0.01  0.03  0.00  0.96  0.00  0.00  0.00  0.00  0.00
  YS02001907YS02006553    1.00   0.00  0.01  0.00  0.99  0.00  0.00  0.00  0.00  0.00
  YS02006558YS02006561    1.00   0.05  0.00  0.00  0.27  0.68  0.00  0.00  0.46  0.00
  YS02001633YS02163601    1.00   0.00  0.00  0.00  1.00  0.00  0.00  0.00  0.14  0.00
  YS02001644YS02001647    1.00   0.00  0.05  0.00  0.95  0.00  0.00  0.00  0.00  0.00
  YS02001745YS02001748    1.00   0.00  0.00  0.00  0.91  0.00  0.00  0.08  0.01  0.00
  YS02001748YS02001751    1.00   0.00  0.00  0.00  0.97  0.03  0.00  0.00  0.14  0.00
  YS02001751YS02001754    1.00   0.00  0.00  0.00  0.94  0.00  0.00  0.06  0.01  0.00
  YS02001754YS02001757    1.00   0.00  0.00  0.00  1.00  0.00  0.00  0.00  0.16  0.00
  YS02001882YS02001884    1.00   0.05  0.00  0.00  0.95  0.00  0.00  0.00  0.00  0.00
  YS02001884YS02001887    1.00   0.02  0.02  0.00  0.96  0.00  0.00  0.00  0.00  0.00
  YS02001890YS02001895    1.00   0.00  0.05  0.00  0.95  0.00  0.00  0.00  0.00  0.00
  YS02001895YS02001898    1.00   0.05  0.00  0.00  0.94  0.00  0.01  0.00  0.00  0.00
  YS02001898YS02001901    1.00   0.05  0.00  0.00  0.95  0.00  0.00  0.00  0.01  0.00
  YS02001901YS02001904    1.00   0.05  0.00  0.00  0.95  0.00  0.00  0.00  0.00  0.00
  YS02001904YS02001907    1.00   0.00  0.05  0.00  0.95  0.00  0.00  0.00  0.00  0.00
  YS02001887YS02001890    1.00   0.00  0.00  0.00  0.99  0.00  0.01  0.00  0.00  0.00
  YS02001652YS02001649    1.00   0.00  0.00  0.00  1.00  0.00  0.00  0.00  0.15  0.00
  YS02001655YS02001652    1.00   0.00  0.00  0.00  0.94  0.00  0.00  0.06  0.01  0.00
  YS02001658YS02001655    1.00   0.00  0.04  0.00  0.93  0.03  0.00  0.00  0.02  0.00
  YS02001661YS02001658    1.00   0.04  0.00  0.00  0.91  0.04  0.00  0.00  0.01  0.00
  YS02001664YS02001661    1.00   0.04  0.00  0.00  0.92  0.04  0.00  0.00  0.09  0.00
  YSB1154YSB6556          1.00   0.04  0.00  0.00  0.96  0.00  0.00  0.00  0.01  0.00
  YSB1174YSB1171          1.00   0.02  0.01  0.00  0.97  0.00  0.00  0.00  0.00  0.00
  YSB1171HS02004479       1.00   0.01  0.00  0.00  0.98  0.00  0.00  0.00  0.10  0.00
  HS02004881HS02006253    1.00   0.02  0.00  0.00  0.48  0.03  0.00  0.48  0.31  0.00
  YS02001793JiankangQianchi    1.00   0.00  0.00  0.00  0.73  0.27  0.00  0.00  0.32  0.00
  YS02001757CaochengTiaoxuchi    1.00   0.00  0.07  0.00  0.90  0.03  0.00  0.00  0.00  0.00
  WSF200WS02003060        1.00   0.00  0.02  0.00  0.96  0.02  0.00  0.00  0.55  0.00
  1                       1.00   0.00  0.00  0.00  0.00  1.00  0.00  0.00  0.55  0.00
  
  
  *************************
  Conduit Surcharge Summary
  *************************
  
  ----------------------------------------------------------------------------
                                                           Hours        Hours 
                         --------- Hours Full --------   Above Full   Capacity
  Conduit                Both Ends  Upstream  Dnstream   Normal Flow   Limited
  ----------------------------------------------------------------------------
  WS02006229WS02006228        2.36      2.45      2.36      3.71         2.36
  WS02006256WS02006235        5.33      5.33      6.92      4.55         0.01
  WS02006253WS02006251        0.74      0.74      0.77      0.01         0.01
  WS02006252WS02006251        0.20      0.20      0.50      0.11         0.01
  WS02006251WS02006249        0.74      0.74      0.81      0.09         0.08
  WS02006249WS02006248        0.79      0.79      0.81      0.90         0.01
  WS02006248WS02006247        0.81      0.81      0.94      0.01         0.01
  WS02006247WS02006245        0.96      0.96      0.96      1.69         0.62
  WS02006245WS02006243        0.98      0.98      1.11      0.01         0.01
  WS02006243WS02006242        1.14      1.14      1.40      0.01         0.01
  WS02006242WS02006240        1.34      1.34      1.56      0.15         0.01
  WS02006240WS02006239        1.38      1.38      1.54      0.01         0.01
  WS02006239WS02006238        1.75      1.75      1.96      0.01         0.01
  WS02006238WS02006235        1.95      1.95      2.10      0.01         0.02
  WS02006235WS02006234        1.58      1.58      1.86      5.01         0.01
  WS02006234WS02006232        1.73      1.73      2.27      0.01         0.01
  WS02006232WS02006231        1.38      1.38      2.27      0.01         0.01
  WS02006231WS02006230        1.34      1.34      1.39      5.18         0.02
[...]
  YS02001779YS02001774        6.30      6.30      6.35      0.01         0.01
  YS02001649YS02001757        6.36      6.36      6.39      0.01         0.01
  YS02001767YS02001765        6.34      6.34      6.35      0.01         0.01
  YS02006561YS02001783        1.71      1.71      1.95      0.01         0.01
  YS02001783YS02001784        1.93      1.95      1.93      2.12         1.91
  YS02001784YS02001785        1.87      1.93      1.87      2.88         1.87
  YS02001788YS02001790        1.82      1.82      2.77      0.01         0.01
  YS02001790YS02001791        2.77      2.77      2.86      1.83         1.81
  YS02001791YS02001793        2.86      2.86      3.19      0.01         0.01
  YS02001910YS02001907        1.94      1.94      2.40      0.01         0.01
  YS02001786YS02001788        1.82      1.87      1.82      2.55         1.82
  YS02001915YS02001910        1.81      1.81      1.94      0.01         0.01
  YS02001918YS02001915        1.67      1.67      1.81      0.01         0.01
  YS02001923YS02001920        1.50      1.50      1.69      0.01         0.01
  YS02001926YS02001923        0.01      0.01      0.01      0.01         0.01
  YS02001929YS02001926        0.01      0.01      0.01      0.01         0.01
  YS02001920YS02001918        1.67      1.67      1.69      0.01         0.01
  YS02001629YS02163301        6.33      6.33      6.33      0.01         0.01
  YS02001619YS02001622        6.26      6.26      6.26      0.01         0.02
  YS02001622YS02001625        6.26      6.26      6.32      0.01         0.01
  YS02001625YS02001629        6.25      6.25      6.32      0.01         0.01
  YS02163301YS02001633        6.33      6.33      6.34      0.01         0.01
  YS02163601YS02164001        6.34      6.34      6.36      0.01         0.01
  YS02164001YS02001641        6.34      6.34      6.35      0.01         0.02
  YS02001641YS02001644        6.35      6.35      6.35      2.38         2.43
  YS02001647YS02001649        6.32      6.32      6.36      0.01         0.01
  YS02006553YS02006556        2.11      2.11      2.46      0.01         0.01
  YS02006556YS02006558        2.21      2.21      2.51      0.01         0.01
  YSB6556YSB1171              0.01      0.01      0.30      0.01         0.01
  YS02001907YS02006553        2.93      2.93      3.16      0.01         0.01
  YS02006558YS02006561        1.79      2.08      1.79      2.78         1.79
  YS02001633YS02163601        6.34      6.34      6.36      0.01         0.01
  YS02001644YS02001647        6.32      6.32      6.35      0.01         0.01
  YS02001745YS02001748        0.01      0.01      6.21      0.01         0.01
  YS02001748YS02001751        6.22      6.22      6.25      0.01         0.01
  YS02001751YS02001754        6.25      6.25      6.30      0.01         0.01
  YS02001754YS02001757        6.32      6.32      6.39      0.01         0.01
  YS02001882YS02001884        1.82      1.82      1.83      0.01         0.01
  YS02001884YS02001887        1.86      1.86      1.88      0.01         0.01
  YS02001890YS02001895        1.80      1.80      1.95      0.01         0.01
  YS02001895YS02001898        1.78      1.78      1.80      0.01         0.01
  YS02001898YS02001901        1.80      1.80      1.86      0.01         0.01
  YS02001901YS02001904        1.85      1.85      1.86      0.01         0.01
  YS02001904YS02001907        1.85      1.85      2.47      0.01         0.01
  YS02001887YS02001890        1.91      1.91      1.92      0.52         0.01
  YS02001652YS02001649        6.32      6.32      6.36      0.01         0.01
  YS02001655YS02001652        6.26      6.26      6.32      0.01         0.01
  YS02001658YS02001655        6.21      6.21      6.26      0.01         0.01
  YS02001661YS02001658        0.16      0.16      6.21      0.01         0.01
  YS02001664YS02001661        0.01      0.01      1.86      0.01         0.01
  HS02004881HS02006253        0.01      0.01      0.44      0.01         0.01
  YS02001793JiankangQianchi        3.11      3.11      4.50      0.01         0.01
  YS02001757CaochengTiaoxuchi        5.91      5.91      6.39      0.01         0.01
  
  
  ***************
  Pumping Summary
  ***************
  
  ---------------------------------------------------------------------------------------------------------
                                                  Min       Avg       Max     Total     Power    % Time Off
                        Percent   Number of      Flow      Flow      Flow    Volume     Usage    Pump Curve
  Pump                 Utilized   Start-Ups       LPS       LPS       LPS  10^6 ltr     Kw-hr    Low   High
  ---------------------------------------------------------------------------------------------------------
  CC-Pump-1               35.42           5      0.00    130.27    200.00     1.200      0.66    0.0    0.0
  CC-Pump-2                4.17           1      0.00     96.32    199.95     0.120      0.11    0.0    0.0
  JK-Pump-1               62.50           4      0.00    249.97    300.00     4.097     54.58    0.0    0.0
  JK-Pump-2               58.34           4      0.00    491.62    683.00     7.438     88.31    0.0   97.7
  XR-Pump-1               97.92           2      0.00     94.38     95.00     2.622     20.69    0.0    0.0
  XR-Pump-2               97.92           2      0.00     92.35     95.00     2.565     19.59    0.0    0.0
  XR-Pump-3               97.92           2      0.00     92.35     95.00     2.565     19.59    0.0    0.0
  XR-Pump-4               97.92           2      0.00     92.35     95.00     2.565     19.59    0.0    0.0
  
  
  ***************************
  Link Pollutant Load Summary
  ***************************
  
  ------------------------------------------------------------------------------------------
                                 COD            SS            TN            TP         NH4-N
  Link                            kg            kg            kg            kg            kg
  ------------------------------------------------------------------------------------------
  WS02003066WSF200           922.655      1782.040        22.899         1.967        11.908
  WS02006287WS02006284       439.417       856.652        12.714         1.197         6.843
  WS02006284WS02006280       439.929       857.472        12.763         1.203         6.873
  WS02006280WS02006229       439.941       857.537        12.761         1.203         6.872
  WS02006229WS02006228       901.121      1741.957        22.045         1.873        11.419
  WS02006256WS02006235       256.721       484.926         5.333         0.396         2.646
  WS02006253WS02006251        79.812       161.408         1.651         0.119         0.803
  WS02006252WS02006251       147.600       284.722         2.794         0.194         1.345
  WS02006251WS02006249       226.002       443.726         4.414         0.310         2.133
  WS02006249WS02006248       209.779       410.480         4.099         0.288         1.981
  WS02006248WS02006247       208.779       408.306         4.078         0.286         1.970
  WS02006247WS02006245       209.134       409.047         4.082         0.287         1.972
  WS02006245WS02006243       209.650       410.229         4.087         0.287         1.973
  WS02006243WS02006242       210.413       411.613         4.108         0.288         1.985
  WS02006242WS02006240       211.358       413.021         4.134         0.290         1.998
  WS02006240WS02006239       212.774       415.167         4.174         0.294         2.020
  WS02006239WS02006238       214.516       417.587         4.234         0.299         2.052
  WS02006238WS02006235       216.014       419.888         4.274         0.303         2.073
  WS02006235WS02006234       462.263       886.534         9.336         0.677         4.578
  WS02006234WS02006232       462.226       886.373         9.340         0.677         4.581
  WS02006232WS02006231       462.041       886.053         9.336         0.677         4.579
  WS02006231WS02006230       462.460       886.970         9.345         0.678         4.583
  WS02006230WS02006229       463.613       889.025         9.386         0.682         4.606
  WS02006228WS02006109       900.286      1740.472        21.988         1.867        11.384
  WS02006116WS02004401       923.985      1784.519        22.955         1.973        11.941
  WS02006115WS02006116       924.295      1785.101        22.972         1.975        11.951
  WS02006113WS02006111       907.787      1752.556        22.723         1.959        11.844
  WS02006112WS02006115       924.868      1786.104        23.007         1.979        11.972
  WS02006111WS02006112       907.290      1751.535        22.699         1.956        11.830
  WS02006110WS02006113       907.898      1752.626        22.739         1.961        11.855
  WS02006109WS02006110       908.435      1753.414        22.785         1.966        11.883
  WS02004411WS02004412       923.969      1784.393        22.973         1.976        11.953
  WS02004401WS02004402       923.586      1783.842        22.928         1.970        11.924
  WS02004413WS02003067       922.705      1782.156        22.899         1.967        11.908
  WS02004412WS02004413       923.755      1784.015        22.960         1.974        11.945
  WS02004410WS02004411       924.033      1784.509        22.978         1.976        11.956
  WS02004409WS02004410       924.198      1784.806        22.988         1.978        11.962
  WS02004407WS02004409       924.115      1784.667        22.983         1.977        11.959
  WS02004406WS02004407       923.841      1784.180        22.968         1.975        11.950
  WS02004405WS02004406       924.428      1785.126        23.020         1.982        11.983
  WS02004404WS02004405       924.045      1784.505        22.987         1.978        11.962
  WS02004403WS02004404       923.065      1782.950        22.890         1.965        11.901
  WS02004402WS02004403       923.398      1783.519        22.914         1.968        11.916
  WS02004139WS02001211      1394.510      2362.538       104.731        12.636        64.132
  WS02004138WS02004139      1400.654      2372.871       105.195        12.692        64.416
  WS02003067WS02003066       922.790      1782.301        22.903         1.968        11.911
  WS02001213WS02003059      1429.556      2417.541       108.364        13.094        66.415
  WS02001212WS02001213      1438.600      2432.605       109.086        13.182        66.859
  WS02001211WS02001212      1440.177      2435.187       109.220        13.199        66.943
  WS02003072WS02003073      2456.500      4365.516       141.505        16.345        84.735
  WS02003069WS02003072      2461.306      4373.438       141.910        16.395        84.986
  WS02003060WS02003069      2463.784      4377.665       142.084        16.416        85.092
  WS02003059WS02003060      1427.122      2413.343       108.206        13.076        66.320
  HS02004901HS02004770        19.398        38.440         0.369         0.028         0.174
  HS02004876HS02004881        64.867       131.193         1.384         0.100         0.676
  HS02004870HS02004876        49.328        99.660         1.097         0.080         0.538
  HS02004842HS02004848         9.280        18.139         0.191         0.013         0.089
  HS02004837HS02004842        13.928        25.530         0.662         0.072         0.384
  HS02004830HS02004837        82.262       147.258         4.949         0.580         2.988
  HS02004824HS02004830        83.077       148.597         5.024         0.589         3.035
  HS02004817HS02004824       119.539       223.363         5.760         0.636         3.392
  HS02004770HS02004777        73.683       147.822         1.507         0.104         0.700
  HS02004799HS02004480       235.386       461.117         5.709         0.488         2.900
  HS02004792HS02004799       214.450       417.820         5.360         0.468         2.741
  HS02004788HS02004792       116.587       227.774         3.359         0.307         1.772
  HS02004785HS02004788        75.125       150.126         1.656         0.123         0.794
  HS02004777HS02004785        74.433       149.017         1.592         0.115         0.755
  HS02004480HS02004478       294.724       580.397         6.733         0.563         3.389
  HS02004479HS02004480        62.981       125.164         1.335         0.113         0.681
  HS02004862HS02004870        37.561        74.894         0.865         0.066         0.427
  HS02004848HS02004852        15.822        31.381         0.320         0.022         0.149
  HS02004856HS02004862        25.851        52.197         0.514         0.035         0.242
  HS02004852HS02004856        15.836        31.404         0.320         0.022         0.149
  HS02004802HS02004478       145.631       277.764         6.047         0.642         3.494
  HS02004478WS02006287       439.569       856.873        12.731         1.199         6.853
  HS02004817HS02004807       118.251       221.332         5.626         0.619         3.308
  HS02004807HS02004802       145.799       278.020         6.079         0.646         3.515
  YS02001759YS02001757       393.466       745.235         7.687         0.540         3.750
  YS02001762YS02001759       253.894       479.635         5.117         0.362         2.512
  YS02001765YS02001762       255.682       484.240         5.168         0.367         2.540
  YS02001770YS02001767       260.720       497.245         5.129         0.354         2.498
  YS02001774YS02001770       497.389       970.500         9.617         0.647         4.655
  YS02001779YS02001774       496.922       969.657         9.685         0.658         4.703
  YS02001649YS02001757       503.877       942.829        10.091         0.690         4.877
  YS02001767YS02001765       258.112       490.110         5.226         0.371         2.570
  YS02006561YS02001783      1267.441      2391.838        26.193         1.937        12.970
  YS02001783YS02001784      1267.418      2391.833        26.190         1.936        12.969
  YS02001784YS02001785      1274.989      2403.989        26.919         2.028        13.425
  YS02001788YS02001790      1275.690      2405.149        26.995         2.037        13.472
  YS02001790YS02001791      1276.757      2406.870        27.097         2.050        13.536
  YS02001791YS02001793      1276.782      2406.929        27.095         2.050        13.535
  YS02001910YS02001907       568.006      1071.988        12.851         0.951         6.492
  YS02001786YS02001788      1275.217      2404.368        26.948         2.031        13.443
  YS02001915YS02001910       567.655      1071.292        12.803         0.944         6.461
  YS02001918YS02001915       280.715       508.842         6.972         0.601         3.667
  YS02001923YS02001920       255.037       465.001         4.906         0.350         2.391
  YS02001926YS02001923       251.922       459.404         4.781         0.337         2.319
  YS02001929YS02001926       249.205       454.631         4.667         0.325         2.254
  YS02001920YS02001918       276.547       500.106         6.880         0.595         3.621
  YS02001629YS02163301        90.081       159.922         1.904         0.125         0.893
  YS02001619YS02001622       259.803       485.877         5.254         0.349         2.466
  YS02001622YS02001625       258.861       484.406         5.230         0.347         2.455
  YS02001625YS02001629        87.136       154.077         1.859         0.121         0.870
  YS02163301YS02001633        94.933       169.440         1.981         0.132         0.931
  YS02163601YS02164001       530.493       978.794        10.201         0.737         4.903
  YS02164001YS02001641       530.411       978.650        10.188         0.736         4.896
  YS02001641YS02001644       531.450       980.399        10.201         0.737         4.901
  YS02001647YS02001649       668.665      1253.889        13.398         0.928         6.428
  YS02006553YS02006556       785.715      1463.614        16.736         1.269         8.387
  YS02006556YS02006558       786.016      1464.179        16.704         1.264         8.365
  YSB6556YSB1171              36.521        72.732         0.718         0.058         0.359
  YS02001907YS02006553       785.603      1463.409        16.762         1.273         8.406
  YS02006558YS02006561      1267.406      2391.755        26.193         1.937        12.970
  YS02001633YS02163601       531.062       979.686        10.176         0.733         4.884
  YS02001644YS02001647       675.911      1267.934        13.509         0.936         6.479
  YS02001745YS02001748       354.697       680.946         7.004         0.438         3.365
  YS02001748YS02001751       354.041       679.840         7.012         0.441         3.373
  YS02001751YS02001754       353.155       678.394         6.998         0.441         3.368
  YS02001754YS02001757       354.041       679.739         7.169         0.464         3.478
  YS02001882YS02001884         3.247         5.734         0.062         0.005         0.031
  YS02001884YS02001887         7.698        13.909         0.145         0.011         0.072
  YS02001890YS02001895       615.430      1176.441        11.379         0.860         5.553
  YS02001895YS02001898       615.353      1176.392        11.374         0.859         5.550
  YS02001898YS02001901       615.195      1176.103        11.370         0.859         5.548
  YS02001901YS02001904       615.172      1176.104        11.382         0.861         5.556
  YS02001904YS02001907       615.563      1176.715        11.441         0.868         5.593
  YS02001887YS02001890       669.804      1285.203        12.372         0.937         6.041
  YS02001652YS02001649       316.262       599.720         6.288         0.455         2.955
  YS02001655YS02001652       316.992       600.886         6.309         0.456         2.964
  YS02001658YS02001655       316.754       600.500         6.228         0.445         2.910
  YS02001661YS02001658       317.581       601.830         6.248         0.446         2.920
  YS02001664YS02001661       326.561       615.948         6.464         0.461         3.018
  YSB1154YSB6556              36.099        72.065         0.671         0.053         0.330
  YSB1174YSB1171              24.947        50.012         0.489         0.039         0.242
  YSB1171HS02004479           62.903       125.018         1.341         0.114         0.684
  HS02004881HS02006253        73.129       148.354         1.538         0.110         0.750
  YS02001793JiankangQianchi      1277.366      2407.904        27.121         2.053        13.550
  YS02001757CaochengTiaoxuchi       608.782      1165.027        11.610         0.797         5.586
  WSF200WS02003060           923.108      1782.842        22.925         1.970        11.924
  1                         2463.032      4375.593       142.226        16.437        85.191
  CC-Pump-1                  133.151       256.884         2.497         0.172         1.198
  CC-Pump-2                   13.642        26.379         0.254         0.018         0.122
  JK-Pump-1                  346.775       660.570         7.065         0.521         3.489
  JK-Pump-2                  733.117      1406.060        14.756         1.084         7.271
  XR-Pump-1                  357.446       604.957        26.968         3.256        16.521
  XR-Pump-2                  349.030       591.451        26.181         3.158        16.030
  XR-Pump-3                  349.030       591.451        26.181         3.158        16.030
  XR-Pump-4                  349.030       591.451        26.181         3.158        16.030
  

  Analysis begun on:  Sat Jul 10 17:14:03 2021
  Analysis ended on:  Sat Jul 10 17:14:06 2021
  Total elapsed time: 00:00:03