
  EPA STORM WATER MANAGEMENT MODEL - VERSION 5.1 (Build 5.3.0.dev0)
  --------------------------------------------------------------

  WARNING 04: minimum elevation drop used for Conduit WS02004404WS02004405
  WARNING 03: negative offset ignored for Link YS02001904YS02001907
  
  *********************************************************
  NOTE: The summary statistics displayed in this report are
  based on results found at every computational time step,  
  not just on results from each reporting time step.
  *********************************************************
  
  ****************
  Analysis Options
  ****************
  Flow Units ............... LPS
  Process Models:
    Rainfall/Runoff ........ YES
    RDII ................... NO
    Snowmelt ............... NO
    Groundwater ............ NO
    Flow Routing ........... YES
    Ponding Allowed ........ NO
    Water Quality .......... YES
  Infiltration Method ...... HORTON
  Flow Routing Method ...... DYNWAVE
  Surcharge Method ......... EXTRAN
  Starting Date ............ 08/28/2015 08:00:00
  Ending Date .............. 08/28/2015 15:50:00
  Antecedent Dry Days ...... 8.0
  Report Time Step ......... 00:01:00
  Wet Time Step ............ 00:01:00
  Dry Time Step ............ 00:01:00
  Routing Time Step ........ 5.00 sec
  Variable Time Step ....... YES
  Maximum Trials ........... 8
  Number of Threads ........ 4
  Head Tolerance ........... 0.001500 m
  
  
  **************************        Volume         Depth
  Runoff Quantity Continuity     hectare-m            mm
  **************************     ---------       -------
  Total Precipitation ......         0.512         1.121
  Evaporation Loss .........         0.000         0.000
  Infiltration Loss ........         0.127         0.278
  Surface Runoff ...........         0.185         0.405
  Final Storage ............         0.200         0.438
  Continuity Error (%) .....        -0.023
  
  
  **************************           COD            SS            TN            TP         NH4-N
  Runoff Quality Continuity             kg            kg            kg            kg            kg
  **************************    ----------    ----------    ----------    ----------    ----------
  Initial Buildup ..........     41378.656     70582.865      1804.177       168.684      1032.807
  Surface Buildup ..........        14.185        11.907         4.180         0.393         2.486
  Wet Deposition ...........         0.000         0.000         0.000         0.000         0.000
  Sweeping Removal .........         0.000         0.000         0.000         0.000         0.000
  Infiltration Loss ........         1.160         1.649         0.029         0.002         0.013
  BMP Removal ..............         0.000         0.000         0.000         0.000         0.000
  Surface Runoff ...........        43.761        61.078         1.080         0.063         0.500
  Remaining Buildup ........     41347.906     70532.025      1807.247       169.012      1034.780
  Continuity Error (%) .....         0.000         0.000         0.000         0.000         0.000
  
  
  **************************        Volume        Volume
  Flow Routing Continuity        hectare-m      10^6 ltr
  **************************     ---------     ---------
  Dry Weather Inflow .......         0.616         6.165
  Wet Weather Inflow .......         0.185         1.850
  Groundwater Inflow .......         0.000         0.000
  RDII Inflow ..............         0.000         0.000
  External Inflow ..........         0.102         1.024
  External Outflow .........         0.714         7.138
  Flooding Loss ............         0.007         0.068
  Evaporation Loss .........         0.000         0.000
  Exfiltration Loss ........         0.000         0.000
  Initial Stored Volume ....         0.076         0.761
  Final Stored Volume ......         0.259         2.594
  Continuity Error (%) .....        -0.011
  
  
  **************************           COD            SS            TN            TP         NH4-N
  Quality Routing Continuity            kg            kg            kg            kg            kg
  **************************    ----------    ----------    ----------    ----------    ----------
  Dry Weather Inflow .......      1541.201      2465.922       147.955        18.494        92.472
  Wet Weather Inflow .......        43.731        61.039         1.079         0.063         0.500
  Groundwater Inflow .......         0.000         0.000         0.000         0.000         0.000
  RDII Inflow ..............         0.000         0.000         0.000         0.000         0.000
  External Inflow ..........       183.418       293.469        17.608         2.201        11.005
  External Outflow .........      1426.040      2280.276       136.008        16.982        84.954
  Flooding Loss ............         3.807         5.880         0.292         0.035         0.179
  Exfiltration Loss ........         0.000         0.000         0.000         0.000         0.000
  Mass Reacted .............         0.000         0.000         0.000         0.000         0.000
  Initial Stored Mass ......         0.000         0.000         0.000         0.000         0.000
  Final Stored Mass ........       327.340       516.661        29.345         3.619        18.225
  Continuity Error (%) .....         0.631         0.624         0.599         0.591         0.596
  
  
  *************************
  Highest Continuity Errors
  *************************
  Node HS02004842 (58.36%)
  Node YS02001774 (56.38%)
  Node YS02001884 (51.29%)
  Node HS02004901 (23.05%)
  Node YSB1171 (22.12%)
  
  
  ***************************
  Time-Step Critical Elements
  ***************************
  Link WS02006280WS02006229 (63.89%)
  Link WS02006238WS02006235 (16.10%)
  
  
  ********************************
  Highest Flow Instability Indexes
  ********************************
  Link YS02001754YS02001757 (12)
  Link YS02001652YS02001649 (11)
  Link YS02001649YS02001757 (11)
  Link YS02001762YS02001759 (11)
  Link YS02001751YS02001754 (11)
  
  
  *************************
  Routing Time Step Summary
  *************************
  Minimum Time Step           :     0.54 sec
  Average Time Step           :     4.15 sec
  Maximum Time Step           :     5.00 sec
  Percent in Steady State     :    -0.00
  Average Iterations per Step :     2.07
  Percent Not Converging      :     0.28
  
  
  ***************************
  Subcatchment Runoff Summary
  ***************************
  
  ------------------------------------------------------------------------------------------------------------------------------
                            Total      Total      Total      Total     Imperv       Perv      Total       Total     Peak  Runoff
                           Precip      Runon       Evap      Infil     Runoff     Runoff     Runoff      Runoff   Runoff   Coeff
  Subcatchment                 mm         mm         mm         mm         mm         mm         mm    10^6 ltr      LPS
  ------------------------------------------------------------------------------------------------------------------------------
  sub0                       1.12       0.00       0.00       0.08       1.00       0.00       1.00        0.00     0.26   0.891
  sub1                       1.12       0.00       0.00       0.12       0.92       0.00       0.92        0.01     1.20   0.820
  sub2                       1.12       0.00       0.00       0.41       0.64       0.00       0.64        0.01     1.02   0.568
  sub3                       1.12       0.00       0.00       0.41       0.61       0.00       0.61        0.01     1.99   0.547
  sub4                       1.12       0.00       0.00       0.12       0.82       0.00       0.82        0.02     2.14   0.735
  sub5                       1.12       0.00       0.00       0.08       0.96       0.00       0.96        0.01     2.14   0.856
  sub7                       1.12       0.00       0.00       0.10       0.96       0.00       0.96        0.00     0.81   0.858
  sub8                       1.12       0.00       0.00       0.10       0.96       0.00       0.96        0.01     1.39   0.852
  sub9                       1.12       0.00       0.00       0.10       0.95       0.00       0.95        0.00     1.02   0.850
  sub10                      1.12       0.00       0.00       0.09       0.96       0.00       0.96        0.01     2.16   0.852
  sub11                      1.12       0.00       0.00       0.09       0.97       0.00       0.97        0.01     2.64   0.864
  sub12                      1.12       0.00       0.00       0.15       0.93       0.00       0.93        0.01     2.38   0.829
  sub14                      1.12       0.00       0.00       0.10       0.95       0.00       0.95        0.01     1.99   0.849
  sub15                      1.12       0.00       0.00       0.34       0.73       0.00       0.73        0.01     2.68   0.651
  sub16                      1.12       0.00       0.00       0.37       0.71       0.00       0.71        0.01     2.05   0.636
  sub17                      1.12       0.00       0.00       0.36       0.72       0.00       0.72        0.01     1.64   0.644
  sub22                      1.12       0.00       0.00       0.48       0.60       0.00       0.60        0.04     9.07   0.536
  sub23                      1.12       0.00       0.00       0.41       0.67       0.00       0.67        0.03     7.78   0.594
  sub60                      1.12       0.00       0.00       0.13       0.41       0.00       0.41        0.13     8.50   0.368
  sub61                      1.12       0.00       0.00       0.19       0.49       0.00       0.49        0.15    11.38   0.437
  sub62                      1.12       0.00       0.00       0.09       0.51       0.00       0.51        0.16    11.43   0.455
  sub63                      1.12       0.00       0.00       0.33       0.45       0.00       0.45        0.14    10.87   0.406
  sub64                      1.12       0.00       0.00       0.17       0.39       0.00       0.39        0.12     8.03   0.350
  sub65                      1.12       0.00       0.00       0.15       0.39       0.00       0.39        0.12     8.11   0.351
  sub66                      1.12       0.00       0.00       0.33       0.35       0.00       0.35        0.11     7.52   0.315
  sub67                      1.12       0.00       0.00       0.09       0.62       0.00       0.62        0.19    15.47   0.550
  sub68                      1.12       0.00       0.00       0.16       0.54       0.00       0.54        0.16    12.77   0.478
  sub69                      1.12       0.00       0.00       0.17       0.64       0.00       0.64        0.15    13.45   0.572
  sub70                      1.12       0.65       0.00       0.60       0.61       0.00       0.61        0.14     8.31   0.345
  sub71                      1.12       0.00       0.00       0.09       0.47       0.00       0.47        0.11     7.79   0.419
  sub72                      1.12       0.00       0.00       0.08       0.27       0.00       0.27        0.06     3.27   0.241
  1                          1.12       0.60       0.00       0.58       0.54       0.00       0.54        0.13     7.15   0.316
  2                          1.12       0.00       0.00       0.84       0.20       0.00       0.20        0.08     7.69   0.178
  
  
  ****************************
  Subcatchment Washoff Summary
  ****************************
  
  ------------------------------------------------------------------------------------------
                                 COD            SS            TN            TP         NH4-N
  Subcatchment                    kg            kg            kg            kg            kg
  ------------------------------------------------------------------------------------------
  sub0                         0.069         0.108         0.001         0.000         0.001
  sub1                         0.265         0.415         0.006         0.000         0.003
  sub2                         0.153         0.233         0.004         0.000         0.002
  sub3                         0.347         0.515         0.010         0.001         0.004
  sub4                         0.550         0.836         0.014         0.001         0.007
  sub5                         0.577         0.888         0.011         0.001         0.005
  sub7                         0.154         0.249         0.003         0.000         0.002
  sub8                         0.242         0.397         0.006         0.000         0.003
  sub9                         0.196         0.318         0.004         0.000         0.002
  sub10                        0.505         0.792         0.010         0.001         0.005
  sub11                        0.537         0.861         0.011         0.001         0.005
  sub12                        0.455         0.726         0.009         0.001         0.004
  sub14                        0.404         0.647         0.009         0.001         0.004
  sub15                        0.448         0.686         0.010         0.001         0.005
  sub16                        0.303         0.470         0.007         0.000         0.003
  sub17                        0.266         0.407         0.006         0.000         0.003
  sub22                        1.331         2.004         0.031         0.002         0.014
  sub23                        0.916         1.443         0.025         0.002         0.011
  sub60                        2.631         3.574         0.070         0.004         0.033
  sub61                        3.555         4.823         0.082         0.005         0.039
  sub62                        3.814         5.275         0.097         0.005         0.046
  sub63                        2.880         3.946         0.081         0.005         0.035
  sub64                        2.780         3.642         0.064         0.004         0.030
  sub65                        2.854         3.751         0.067         0.004         0.031
  sub66                        1.936         2.604         0.057         0.003         0.025
  sub67                        5.831         7.991         0.121         0.008         0.058
  sub68                        4.227         5.835         0.104         0.006         0.049
  sub69                        4.394         6.179         0.102         0.006         0.048
  sub70                        4.722         6.679         0.129         0.008         0.057
  sub71                        2.542         3.538         0.071         0.003         0.033
  sub72                        1.107         1.405         0.027         0.002         0.013
  1                            1.432         2.051         0.043         0.003         0.018
  2                            0.456         0.646         0.020         0.001         0.008
  ------------------------------------------------------------------------------------------
  System                      52.876        73.935         1.311         0.077         0.605
  
  
  ******************
  Node Depth Summary
  ******************
  
  ---------------------------------------------------------------------------------
                                 Average  Maximum  Maximum  Time of Max    Reported
                                   Depth    Depth      HGL   Occurrence   Max Depth
  Node                 Type       Meters   Meters   Meters  days hr:min      Meters
  ---------------------------------------------------------------------------------
  WS02001211           JUNCTION     0.62     0.69     5.53     0  02:40        0.69
  WS02001212           JUNCTION     0.34     0.40     5.46     0  03:57        0.40
  WS02001213           JUNCTION     0.52     0.60     5.37     0  06:59        0.60
  WS02003069           JUNCTION     0.28     0.35     4.94     0  06:59        0.35
  WS02003072           JUNCTION     0.35     0.43     4.80     0  07:00        0.43
  WS02003073           JUNCTION     0.20     0.25     4.31     0  07:00        0.25
  WS02003060           JUNCTION     0.25     0.32     5.25     0  06:58        0.32
  WS02003066           JUNCTION     0.09     0.17     5.72     0  03:32        0.17
  WS02003059           JUNCTION     0.57     0.65     5.34     0  06:59        0.65
  WS02003067           JUNCTION     0.26     0.44     5.76     0  03:31        0.44
  WS02004401           JUNCTION     0.34     0.50     6.50     0  03:25        0.50
  WS02004402           JUNCTION     0.37     0.54     6.50     0  03:25        0.54
  WS02004403           JUNCTION     0.39     0.57     6.50     0  03:27        0.57
  WS02004404           JUNCTION     0.47     0.65     6.50     0  03:27        0.65
  WS02004406           JUNCTION     0.48     0.66     6.49     0  03:23        0.66
  WS02004409           JUNCTION     0.15     0.29     6.06     0  03:29        0.29
  WS02004410           JUNCTION     0.17     0.32     6.04     0  03:30        0.32
  WS02004411           JUNCTION     0.19     0.35     6.03     0  03:30        0.35
  WS02004412           JUNCTION     0.22     0.38     6.02     0  03:31        0.38
  WS02004413           JUNCTION     0.34     0.55     6.02     0  03:31        0.55
  WS02004405           JUNCTION     0.47     0.65     6.50     0  03:26        0.64
  WS02006109           JUNCTION     0.40     0.60     7.22     0  03:20        0.60
  WS02006110           JUNCTION     0.43     0.62     7.21     0  03:20        0.62
  WS02006111           JUNCTION     0.08     0.17     6.87     0  03:20        0.16
  WS02006112           JUNCTION     0.47     0.64     6.53     0  03:21        0.64
  WS02006113           JUNCTION     0.11     0.25     7.14     0  03:20        0.24
  WS02006115           JUNCTION     0.23     0.37     6.51     0  03:25        0.37
  WS02006116           JUNCTION     0.31     0.47     6.51     0  03:25        0.47
  WS02006230           JUNCTION     0.29     0.51     7.25     0  03:19        0.50
  WS02006231           JUNCTION     0.09     0.38     7.50     0  03:18        0.37
  WS02006232           JUNCTION     0.16     0.51     7.55     0  03:18        0.50
  WS02006234           JUNCTION     0.08     0.41     7.56     0  03:18        0.40
  WS02006235           JUNCTION     0.10     0.44     7.60     0  03:18        0.43
  WS02006238           JUNCTION     0.12     0.46     7.60     0  03:18        0.45
  WS02006240           JUNCTION     0.06     0.32     7.61     0  03:18        0.31
  WS02006242           JUNCTION     0.09     0.35     7.62     0  03:18        0.35
  WS02006243           JUNCTION     0.03     0.20     7.62     0  03:19        0.20
  WS02006245           JUNCTION     0.04     0.14     7.63     0  03:20        0.14
  WS02006247           JUNCTION     0.04     0.14     7.64     0  03:20        0.13
  WS02006248           JUNCTION     0.03     0.06     7.64     0  03:21        0.06
  WS02006249           JUNCTION     0.05     0.09     7.69     0  02:38        0.09
  WS02006239           JUNCTION     0.08     0.39     7.60     0  03:18        0.39
  WS02006251           JUNCTION     0.03     0.06     7.73     0  02:36        0.06
  WS02006252           JUNCTION     0.00     0.00     8.24     0  00:00        0.00
  WS02006253           JUNCTION     0.06     0.11     7.75     0  02:34        0.11
  WS02006256           JUNCTION     0.42     2.35     9.28     0  03:12        2.35
  WS02004138           JUNCTION     0.14     0.17     7.42     0  05:06        0.17
  WS02004139           JUNCTION     0.56     0.63     5.54     0  02:40        0.63
  WS02004407           JUNCTION     0.07     0.14     6.45     0  03:23        0.14
  WS02006228           JUNCTION     0.37     0.58     7.23     0  03:19        0.57
  WS02006229           JUNCTION     0.33     0.54     7.23     0  03:19        0.53
  WS02006280           JUNCTION     0.04     0.06     8.34     0  02:33        0.06
  WS02006284           JUNCTION     0.31     0.37     8.77     0  02:32        0.37
  WS02006287           JUNCTION     0.05     0.09     9.05     0  02:32        0.09
  WSF200               JUNCTION     0.06     0.13     5.36     0  03:32        0.13
  HS02004901           JUNCTION     0.08     0.13     9.95     0  02:33        0.13
  HS02004881           JUNCTION     0.00     0.01     9.04     0  02:34        0.01
  HS02004876           JUNCTION     0.02     0.04     9.07     0  02:34        0.04
  HS02004870           JUNCTION     0.00     0.01     9.30     0  02:31        0.01
  HS02004862           JUNCTION     0.01     0.01     9.40     0  02:32        0.01
  HS02004856           JUNCTION     0.06     0.08     9.51     0  02:29        0.08
  HS02004852           JUNCTION     0.00     0.01     9.52     0  02:30        0.01
  HS02004848           JUNCTION     0.00     0.01     9.61     0  02:21        0.01
  HS02004842           JUNCTION     0.32     0.34     9.61     0  02:20        0.34
  HS02004837           JUNCTION     0.02     0.03     9.61     0  02:21        0.03
  HS02004830           JUNCTION     0.03     0.04     9.51     0  02:21        0.04
  HS02004824           JUNCTION     0.01     0.02     9.42     0  02:25        0.02
  HS02004817           JUNCTION     0.39     0.44     9.29     0  02:31        0.44
  HS02004807           JUNCTION     0.09     0.12     9.29     0  02:31        0.12
  HS02004802           JUNCTION     0.12     0.16     9.29     0  02:31        0.16
  HS02004799           JUNCTION     0.07     0.12     9.33     0  02:31        0.12
  HS02004792           JUNCTION     0.01     0.03     9.55     0  02:30        0.03
  HS02004788           JUNCTION     0.01     0.02     9.92     0  02:34        0.02
  HS02004785           JUNCTION     0.02     0.05     9.95     0  02:35        0.05
  HS02004777           JUNCTION     0.10     0.15     9.95     0  02:34        0.15
  HS02004770           JUNCTION     0.07     0.12     9.95     0  02:34        0.12
  HS02004480           JUNCTION     0.04     0.08     9.32     0  02:32        0.08
  HS02004479           JUNCTION     0.07     0.12     9.32     0  02:32        0.12
  HS02004478           JUNCTION     0.03     0.06     9.28     0  02:31        0.06
  YS02001745           JUNCTION     0.03     0.04     7.56     0  03:01        0.04
  YS02001748           JUNCTION     0.04     0.10     7.18     0  07:48        0.10
  YS02001751           JUNCTION     0.14     0.30     7.18     0  07:49        0.30
  YS02001754           JUNCTION     0.31     0.57     7.18     0  07:49        0.57
  YS02001762           JUNCTION     0.47     0.78     7.18     0  07:49        0.78
  YS02001765           JUNCTION     0.43     0.73     7.18     0  07:49        0.73
  YS02001767           JUNCTION     0.41     0.69     7.18     0  07:50        0.69
  YS02001770           JUNCTION     0.40     0.68     7.18     0  07:49        0.68
  YS02001774           JUNCTION     0.45     0.76     7.18     0  07:49        0.76
  YS02001779           JUNCTION     0.25     0.49     7.18     0  07:49        0.49
  YS02001882           JUNCTION     0.12     0.19     6.90     0  03:05        0.19
  YS02001884           JUNCTION     0.20     0.29     6.90     0  03:05        0.29
  YS02001759           JUNCTION     0.50     0.81     7.18     0  07:50        0.81
  YS02001887           JUNCTION     0.28     0.36     6.90     0  03:05        0.36
  YS02001890           JUNCTION     0.31     0.40     6.90     0  03:05        0.40
  YS02001898           JUNCTION     0.10     0.16     6.89     0  03:07        0.16
  YS02001901           JUNCTION     0.20     0.28     6.89     0  03:06        0.28
  YS02001904           JUNCTION     0.18     0.26     6.89     0  03:06        0.26
  YS02001907           JUNCTION     0.49     0.60     6.89     0  03:07        0.60
  YS02001910           JUNCTION     0.29     0.38     6.89     0  03:06        0.38
  YS02001915           JUNCTION     0.12     0.17     6.89     0  03:06        0.17
  YS02001918           JUNCTION     0.04     0.04     7.11     0  03:08        0.04
  YS02001619           JUNCTION     0.11     0.25     7.18     0  07:49        0.25
  YS02001629           JUNCTION     0.35     0.63     7.18     0  07:49        0.63
  YS02001641           JUNCTION     0.45     0.74     7.18     0  07:49        0.74
  YS02001644           JUNCTION     0.45     0.75     7.18     0  07:49        0.75
  YS02001652           JUNCTION     0.32     0.58     7.18     0  07:49        0.58
  YS02001655           JUNCTION     0.15     0.33     7.18     0  07:49        0.33
  YS02001920           JUNCTION     0.11     0.12     7.13     0  03:07        0.12
  YS02001923           JUNCTION     0.02     0.03     7.29     0  03:05        0.03
  YS02001926           JUNCTION     0.06     0.08     7.52     0  03:04        0.08
  YS02001929           JUNCTION     0.02     0.03     7.72     0  03:01        0.03
  YS02001658           JUNCTION     0.03     0.05     7.19     0  03:01        0.05
  YS02001661           JUNCTION     0.09     0.12     7.52     0  03:01        0.12
  YS02001664           JUNCTION     0.03     0.04     7.97     0  03:01        0.04
  YS02001622           JUNCTION     0.12     0.27     7.18     0  07:50        0.27
  YS02001633           JUNCTION     0.44     0.72     7.18     0  07:50        0.72
  YS02001649           JUNCTION     0.48     0.79     7.18     0  07:50        0.79
  YS02001757           JUNCTION     0.60     0.92     7.18     0  07:49        0.92
  YS02001895           JUNCTION     0.10     0.15     6.90     0  03:05        0.15
  YS02001625           JUNCTION     0.35     0.57     7.18     0  07:50        0.57
  YS02163301           JUNCTION     0.38     0.66     7.18     0  07:50        0.66
  YS02163601           JUNCTION     0.49     0.78     7.18     0  07:49        0.78
  YS02164001           JUNCTION     0.43     0.72     7.18     0  07:49        0.72
  YS02001647           JUNCTION     0.31     0.57     7.18     0  07:48        0.57
  YSB1154              JUNCTION     0.20     0.27     9.32     0  02:32        0.27
  YSB6556              JUNCTION     0.10     0.16     9.32     0  02:31        0.15
  YSB1174              JUNCTION     0.16     0.22     9.32     0  02:32        0.21
  YSB1171              JUNCTION     0.35     0.42     9.32     0  02:32        0.42
  YS02006553           JUNCTION     0.49     0.61     6.89     0  03:07        0.61
  YS02006561           JUNCTION     0.05     0.08     6.74     0  03:07        0.08
  YS02006556           JUNCTION     0.47     0.58     6.89     0  03:06        0.58
  YS02006558           JUNCTION     0.51     0.62     6.89     0  03:06        0.62
  YS02001783           JUNCTION     0.08     0.13     6.27     0  03:07        0.13
  YS02001784           JUNCTION     0.11     0.17     6.24     0  03:07        0.17
  YS02001786           JUNCTION     0.10     0.14     6.17     0  03:08        0.14
  YS02001788           JUNCTION     0.06     0.10     6.08     0  03:09        0.10
  YS02001790           JUNCTION     0.08     0.12     5.77     0  03:09        0.12
  YS02001791           JUNCTION     0.05     0.08     5.55     0  03:15        0.08
  YS02001793           JUNCTION     0.10     0.56     5.39     0  03:12        0.52
  WSC                  OUTFALL      0.20     0.25     0.92     0  07:01        0.25
  JK-storage           STORAGE      3.68     4.56     5.36     0  03:12        4.56
  CC-storage           STORAGE      0.05     0.18     7.18     0  07:50        0.18
  XR-storage           STORAGE      6.59     7.00     5.00     0  03:38        7.00
  
  
  *******************
  Node Inflow Summary
  *******************
  
  -------------------------------------------------------------------------------------------------
                                  Maximum  Maximum                  Lateral       Total        Flow
                                  Lateral    Total  Time of Max      Inflow      Inflow     Balance
                                   Inflow   Inflow   Occurrence      Volume      Volume       Error
  Node                 Type           LPS      LPS  days hr:min    10^6 ltr    10^6 ltr     Percent
  -------------------------------------------------------------------------------------------------
  WS02001211           JUNCTION      7.35   294.56     0  05:07       0.207        5.82       0.550
  WS02001212           JUNCTION      0.00   292.66     0  03:57           0        5.79       0.271
  WS02001213           JUNCTION      0.00   292.66     0  02:40           0        5.77       0.307
  WS02003069           JUNCTION      0.32   387.34     0  06:58     0.00902        7.14       0.211
  WS02003072           JUNCTION      0.00   387.34     0  06:59           0        7.13       0.293
  WS02003073           JUNCTION      1.82   389.10     0  07:00      0.0514        7.16       0.304
  WS02003060           JUNCTION     16.53   386.98     0  06:58       0.466        7.15       0.207
  WS02003066           JUNCTION      0.00   109.47     0  03:32           0       0.961       0.147
  WS02003059           JUNCTION      0.00   292.83     0  03:54           0        5.76       0.548
  WS02003067           JUNCTION      0.00   109.51     0  03:31           0       0.965       0.452
  WS02004401           JUNCTION      0.00   159.84     0  03:21           0        1.07       0.996
  WS02004402           JUNCTION      0.00   149.39     0  03:22           0        1.06       1.022
  WS02004403           JUNCTION      0.00   141.41     0  03:22           0        1.05       0.996
  WS02004404           JUNCTION      0.16   135.40     0  03:22     0.00457        1.04       0.970
  WS02004406           JUNCTION      0.00   126.51     0  03:23           0        1.02       2.084
  WS02004409           JUNCTION      0.00   119.98     0  03:23           0           1       0.302
  WS02004410           JUNCTION      0.00   117.19     0  03:24           0       0.998       0.485
  WS02004411           JUNCTION      0.00   113.42     0  03:25           0       0.993       0.608
  WS02004412           JUNCTION      0.00   111.42     0  03:30           0       0.987       0.811
  WS02004413           JUNCTION      0.00   110.41     0  03:30           0       0.979       1.435
  WS02004405           JUNCTION      0.04   135.17     0  03:23     0.00107        1.03       1.131
  WS02006109           JUNCTION      1.23   192.72     0  03:19      0.0347        1.12       0.962
  WS02006110           JUNCTION      0.00   183.95     0  03:19           0        1.11       0.844
  WS02006111           JUNCTION      0.00   174.51     0  03:20           0         1.1       0.075
  WS02006112           JUNCTION      1.64   173.50     0  03:20      0.0062         1.1       1.350
  WS02006113           JUNCTION      0.00   177.92     0  03:20           0         1.1       0.167
  WS02006115           JUNCTION      0.00   169.66     0  03:21           0        1.09       0.687
  WS02006116           JUNCTION      0.00   166.33     0  03:21           0        1.08       0.739
  WS02006230           JUNCTION     10.28   185.59     0  03:18        0.29       0.739       0.546
  WS02006231           JUNCTION      0.00   180.85     0  03:18           0       0.443      -1.380
  WS02006232           JUNCTION      0.00   188.21     0  03:18           0       0.455       2.657
  WS02006234           JUNCTION      0.00   193.34     0  03:18           0       0.447      -1.834
  WS02006235           JUNCTION      0.00   288.66     0  06:37           0       0.602       2.443
  WS02006238           JUNCTION      0.00   174.19     0  03:13           0       0.287       0.014
  WS02006240           JUNCTION      0.00    80.53     0  06:39           0       0.172       0.203
  WS02006242           JUNCTION      0.00    68.18     0  03:15           0       0.112       0.759
  WS02006243           JUNCTION      0.00    34.01     0  03:16           0      0.0674       2.309
  WS02006245           JUNCTION      0.00    15.51     0  05:40           0      0.0489       2.822
  WS02006247           JUNCTION      0.00    12.12     0  03:19           0        0.04       0.658
  WS02006248           JUNCTION      0.00     5.65     0  02:38           0      0.0363       0.116
  WS02006249           JUNCTION      0.00     5.68     0  02:36           0      0.0367       0.899
  WS02006239           JUNCTION      0.00   120.16     0  06:38           0       0.232       0.314
  WS02006251           JUNCTION      0.08     5.70     0  02:34     0.00217      0.0367       0.177
  WS02006252           JUNCTION      0.00     0.00     0  00:00           0           0       0.000 ltr
  WS02006253           JUNCTION      0.26     5.63     0  02:33    0.000809      0.0347       0.463
  WS02006256           JUNCTION      0.00   300.00     0  03:12           0       0.494      -1.064
  WS02004138           JUNCTION      0.00   285.00     0  02:21           0        5.64       0.057
  WS02004139           JUNCTION      0.32   285.99     0  05:06     0.00905        5.64       0.537
  WS02004407           JUNCTION      0.00   121.46     0  03:23           0           1       0.143
  WS02006228           JUNCTION      0.00   199.09     0  03:19           0        1.09       0.598
  WS02006229           JUNCTION      0.00   204.68     0  03:19           0         1.1       0.749
  WS02006280           JUNCTION      0.00    38.41     0  02:33           0       0.362       0.022
  WS02006284           JUNCTION      0.10    38.41     0  02:32      0.0027       0.363       0.325
  WS02006287           JUNCTION      0.00    38.32     0  02:31           0       0.361       0.191
  WSF200               JUNCTION      0.00   109.45     0  03:32           0        0.96       0.090
  HS02004901           JUNCTION      2.05     2.05     0  02:12     0.00747     0.00759      29.962
  HS02004881           JUNCTION      0.81     5.49     0  02:33     0.00324       0.034       0.164
  HS02004876           JUNCTION      1.20     4.98     0  02:30     0.00611      0.0312       1.605
  HS02004870           JUNCTION      1.39     3.90     0  02:30      0.0061      0.0252       0.402
  HS02004862           JUNCTION      1.22     2.78     0  02:28      0.0116      0.0193       0.831
  HS02004856           JUNCTION      1.02     1.62     0  02:25     0.00458     0.00911      18.618
  HS02004852           JUNCTION      0.00     0.72     0  02:27           0     0.00456       0.865
  HS02004848           JUNCTION      1.99     1.99     0  02:26      0.0138      0.0138       0.262
  HS02004842           JUNCTION      0.00     4.49     0  00:03           0      0.0223     140.157
  HS02004837           JUNCTION      8.51     9.78     0  02:20        0.19       0.199       0.398
  HS02004830           JUNCTION      0.15     9.92     0  02:21     0.00423       0.189       0.653
  HS02004824           JUNCTION      2.19    12.07     0  02:25      0.0186       0.207       0.260
  HS02004817           JUNCTION      0.60    12.67     0  02:25      0.0169       0.223       8.066
  HS02004807           JUNCTION      2.64    14.97     0  02:22      0.0112       0.218       1.975
  HS02004802           JUNCTION      0.00    14.84     0  02:24           0       0.213       1.934
  HS02004799           JUNCTION      1.99    20.19     0  02:29     0.00906       0.148       1.511
  HS02004792           JUNCTION      9.35    18.49     0  02:30      0.0458       0.139       0.302
  HS02004788           JUNCTION      4.35    11.07     0  02:33      0.0596      0.0943       0.409
  HS02004785           JUNCTION      0.15     7.28     0  02:32     0.00423      0.0368       1.271
  HS02004777           JUNCTION      0.03     7.85     0  02:13    0.000846      0.0369      16.221
  HS02004770           JUNCTION      7.78     9.53     0  02:13      0.0317      0.0376       8.962
  HS02004480           JUNCTION      0.00    23.64     0  02:31           0       0.164       0.353
  HS02004479           JUNCTION      0.00     3.74     0  02:15           0      0.0291       2.552
  HS02004478           JUNCTION      0.00    38.32     0  02:31           0       0.362       0.224
  YS02001745           JUNCTION      8.50     8.50     0  03:01       0.125       0.125       0.130
  YS02001748           JUNCTION      0.04     8.54     0  03:01     0.00127       0.126       0.544
  YS02001751           JUNCTION      0.01     8.55     0  03:01     0.00031       0.126       4.959
  YS02001754           JUNCTION      0.26    10.85     0  04:17     0.00733       0.129      11.716
  YS02001762           JUNCTION      0.00    12.62     0  03:21           0       0.118      17.072
  YS02001765           JUNCTION      0.00    12.36     0  03:39           0       0.118      18.682
  YS02001767           JUNCTION      0.54    13.36     0  03:39      0.0151       0.131      24.511
  YS02001770           JUNCTION     11.58    13.79     0  03:20       0.161       0.165      15.497
  YS02001774           JUNCTION      0.00     7.96     0  03:20           0       0.034     129.271
  YS02001779           JUNCTION      0.01     4.29     0  03:22    0.000141      0.0114     243.668
  YS02001882           JUNCTION      0.00     1.14     0  02:10           0     0.00157     195.032
  YS02001884           JUNCTION      0.00     3.43     0  02:13           0     0.00675     105.291
  YS02001759           JUNCTION     11.42    22.80     0  03:35       0.152       0.242       8.846
  YS02001887           JUNCTION     15.92    15.92     0  02:58       0.203       0.205       2.826
  YS02001890           JUNCTION      0.00    15.71     0  03:00           0       0.193       3.357
  YS02001898           JUNCTION      0.00    15.54     0  03:04           0       0.184       0.683
  YS02001901           JUNCTION      0.00    15.55     0  03:05           0       0.185       2.243
  YS02001904           JUNCTION      0.00    15.52     0  03:05           0       0.185       2.102
  YS02001907           JUNCTION      0.00    29.36     0  03:07           0       0.419       4.920
  YS02001910           JUNCTION      0.00    13.96     0  03:04           0       0.244       3.521
  YS02001915           JUNCTION      7.81    13.96     0  03:01       0.111       0.247       1.153
  YS02001918           JUNCTION      0.00     6.21     0  03:06           0       0.136       0.357
  YS02001619           JUNCTION      7.52     7.52     0  03:01       0.108       0.108       2.216
  YS02001629           JUNCTION      0.00     7.96     0  03:40           0      0.0804      15.543
  YS02001641           JUNCTION      0.00    15.17     0  03:27           0       0.146      12.629
  YS02001644           JUNCTION      8.07    21.88     0  03:33        0.12       0.244       8.939
  YS02001652           JUNCTION      0.00    11.45     0  03:42           0       0.134      11.068
  YS02001655           JUNCTION      0.15    11.02     0  03:01     0.00434       0.141       5.187
  YS02001920           JUNCTION      2.87     6.21     0  03:05      0.0809       0.137       0.925
  YS02001923           JUNCTION      0.04     3.34     0  03:04     0.00106      0.0566       0.192
  YS02001926           JUNCTION      0.05     3.32     0  03:01     0.00147      0.0564       1.515
  YS02001929           JUNCTION      3.27     3.27     0  03:01       0.055       0.055       0.170
  YS02001658           JUNCTION      0.00    10.86     0  03:01           0       0.137       0.167
  YS02001661           JUNCTION      0.00    10.87     0  03:01           0       0.137       0.417
  YS02001664           JUNCTION     10.87    10.87     0  03:01       0.138       0.138       0.068
  YS02001622           JUNCTION      0.00     7.58     0  03:00           0       0.106       7.752
  YS02001633           JUNCTION      8.31    16.51     0  03:34       0.127       0.184      14.977
  YS02001649           JUNCTION      0.00    32.32     0  03:39           0       0.318      10.368
  YS02001757           JUNCTION      0.00    62.43     0  03:37           0       0.593      16.421
  YS02001895           JUNCTION      0.00    15.59     0  03:03           0       0.186       1.122
  YS02001625           JUNCTION      0.00     9.02     0  03:01           0      0.0987      26.112
  YS02163301           JUNCTION      0.00    10.43     0  03:26           0      0.0751      28.296
  YS02163601           JUNCTION      0.11    15.68     0  03:40      0.0031       0.162      17.689
  YS02164001           JUNCTION      0.00    15.80     0  03:41           0       0.146      11.563
  YS02001647           JUNCTION      0.00    22.10     0  03:40           0       0.215       8.685
  YSB1154              JUNCTION      2.14     2.14     0  02:18      0.0109      0.0124      13.155
  YSB6556              JUNCTION      0.00     2.11     0  02:14           0      0.0136      10.025
  YSB1174              JUNCTION      2.38     2.38     0  02:11     0.00812     0.00925      16.098
  YSB1171              JUNCTION      0.00     4.20     0  02:15           0      0.0285      28.410
  YS02006553           JUNCTION      0.00    29.40     0  03:09           0       0.406       3.262
  YS02006561           JUNCTION      0.00    42.59     0  03:06           0       0.555       0.056
  YS02006556           JUNCTION      0.00    29.43     0  03:09           0       0.407       2.294
  YS02006558           JUNCTION     13.65    42.61     0  03:06       0.189       0.577       0.679
  YS02001783           JUNCTION      0.00    42.59     0  03:07           0       0.555       0.131
  YS02001784           JUNCTION      1.06    43.64     0  03:07      0.0299       0.584       0.221
  YS02001786           JUNCTION      0.06    43.69     0  03:08     0.00159       0.584       0.227
  YS02001788           JUNCTION      0.07    43.76     0  03:08       0.002       0.585       0.118
  YS02001790           JUNCTION      0.15    43.92     0  03:09     0.00437       0.589       0.154
  YS02001791           JUNCTION      0.00    43.92     0  03:09           0       0.588       0.063
  YS02001793           JUNCTION      0.00    71.01     0  03:12           0       0.594       1.449
  WSC                  OUTFALL       0.00   388.94     0  07:01           0        7.14       0.000
  JK-storage           STORAGE       0.00   193.74     0  03:55           0       0.736       1.712
  CC-storage           STORAGE       0.00    56.47     0  03:37           0       0.502       1.900
  XR-storage           STORAGE     214.63   214.63     0  03:01        5.85        6.45       0.000
  
  
  **********************
  Node Surcharge Summary
  **********************
  
  Surcharging occurs when water rises above the top of the highest conduit.
  ---------------------------------------------------------------------
                                               Max. Height   Min. Depth
                                   Hours       Above Crown    Below Rim
  Node                 Type      Surcharged         Meters       Meters
  ---------------------------------------------------------------------
  WS02006256           JUNCTION        3.34          2.050        0.000
  
  
  *********************
  Node Flooding Summary
  *********************
  
  Flooding refers to all water that overflows a node, whether it ponds or not.
  --------------------------------------------------------------------------
                                                             Total   Maximum
                                 Maximum   Time of Max       Flood    Ponded
                        Hours       Rate    Occurrence      Volume     Depth
  Node                 Flooded       LPS   days hr:min    10^6 ltr    Meters
  --------------------------------------------------------------------------
  WS02006256              0.46    158.24      0  03:12       0.068     0.000
  
  
  **********************
  Storage Volume Summary
  **********************
  
  --------------------------------------------------------------------------------------------------
                         Average     Avg  Evap Exfil       Maximum     Max    Time of Max    Maximum
                          Volume    Pcnt  Pcnt  Pcnt        Volume    Pcnt     Occurrence    Outflow
  Storage Unit           1000 m3    Full  Loss  Loss       1000 m3    Full    days hr:min        LPS
  --------------------------------------------------------------------------------------------------
  JK-storage               0.185      64     0     0         0.229      79       0  03:12     300.00
  CC-storage               0.150       1     0     0         0.493       3       0  07:50       0.00
  XR-storage               0.791      85     0     0         0.840      91       0  03:38     285.00
  
  
  ***********************
  Outfall Loading Summary
  ***********************
  
  ---------------------------------------------------------------------------------------------------------------------------------
                         Flow       Avg       Max       Total         Total         Total         Total         Total         Total
                         Freq      Flow      Flow      Volume           COD            SS            TN            TP         NH4-N
  Outfall Node           Pcnt       LPS       LPS    10^6 ltr            kg            kg            kg            kg            kg
  ---------------------------------------------------------------------------------------------------------------------------------
  WSC                   99.99    257.23    388.94       7.138      1426.165      2280.477       136.020        16.983        84.962
  ---------------------------------------------------------------------------------------------------------------------------------
  System                99.99    257.23    388.94       7.138      1426.165      2280.477       136.020        16.983        84.962
  
  
  ********************
  Link Flow Summary
  ********************
  
  -----------------------------------------------------------------------------
                                 Maximum  Time of Max   Maximum    Max/    Max/
                                  |Flow|   Occurrence   |Veloc|    Full    Full
  Link                 Type          LPS  days hr:min     m/sec    Flow   Depth
  -----------------------------------------------------------------------------
  WS02003066WSF200     CONDUIT    109.45     0  03:32      1.84    0.02    0.10
  WS02006287WS02006284 CONDUIT     38.31     0  02:32      0.87    0.02    0.11
  WS02006284WS02006280 CONDUIT     38.41     0  02:33      1.13    0.02    0.09
  WS02006280WS02006229 CONDUIT     38.41     0  02:33      1.80    0.01    0.06
  WS02006229WS02006228 CONDUIT    199.09     0  03:19      0.57    0.66    0.68
  WS02006256WS02006235 CONDUIT    288.66     0  06:37      4.21    3.06    1.00
  WS02006253WS02006251 CONDUIT      5.62     0  02:34      0.23    0.02    0.11
  WS02006252WS02006251 CONDUIT      0.00     0  00:00      0.00    0.00    0.00
  WS02006251WS02006249 CONDUIT      5.68     0  02:36      0.26    0.02    0.11
  WS02006249WS02006248 CONDUIT      5.65     0  02:38      0.31    0.03    0.09
  WS02006248WS02006247 CONDUIT      5.65     0  02:38      0.33    0.01    0.13
  WS02006247WS02006245 CONDUIT     11.19     0  03:21      0.32    0.09    0.20
  WS02006245WS02006243 CONDUIT     19.70     0  03:21      0.48    0.06    0.23
  WS02006243WS02006242 CONDUIT     37.64     0  03:21      0.48    0.08    0.37
  WS02006242WS02006240 CONDUIT     64.67     0  03:15      0.72    0.26    0.47
  WS02006240WS02006239 CONDUIT     80.53     0  06:39      0.75    0.25    0.47
  WS02006239WS02006238 CONDUIT    120.16     0  06:38      0.86    0.38    0.59
  WS02006238WS02006235 CONDUIT    174.19     0  03:13      1.39    0.39    0.64
  WS02006235WS02006234 CONDUIT    193.34     0  03:18      1.08    2.04    0.58
  WS02006234WS02006232 CONDUIT    188.21     0  03:18      1.10    0.38    0.65
  WS02006232WS02006231 CONDUIT    180.85     0  03:18      0.74    0.38    0.62
  WS02006231WS02006230 CONDUIT    175.31     0  03:18      1.04    2.66    0.45
  WS02006230WS02006229 CONDUIT    180.67     0  03:19      0.70    4.02    0.71
  WS02006228WS02006109 CONDUIT    191.49     0  03:19      0.49    0.84    0.72
  WS02006116WS02004401 CONDUIT    159.84     0  03:21      0.45    0.22    0.48
  WS02006115WS02006116 CONDUIT    166.33     0  03:21      0.62    0.21    0.39
  WS02006113WS02006111 CONDUIT    174.51     0  03:20      1.71    0.21    0.26
  WS02006112WS02006115 CONDUIT    169.66     0  03:21      0.44    0.10    0.50
  WS02006111WS02006112 CONDUIT    173.18     0  03:20      0.72    0.08    0.49
  WS02006110WS02006113 CONDUIT    177.92     0  03:20      0.64    0.16    0.54
  WS02006109WS02006110 CONDUIT    183.95     0  03:19      0.49    0.35    0.70
  WS02004411WS02004412 CONDUIT    111.42     0  03:30      0.58    0.16    0.36
  WS02004401WS02004402 CONDUIT    149.39     0  03:22      0.38    0.18    0.52
  WS02004413WS02003067 CONDUIT    109.51     0  03:31      0.45    0.05    0.35
  WS02004412WS02004413 CONDUIT    110.41     0  03:30      0.56    0.07    0.46
  WS02004410WS02004411 CONDUIT    113.42     0  03:25      0.55    0.15    0.34
  WS02004409WS02004410 CONDUIT    117.19     0  03:24      0.63    0.15    0.31
  WS02004407WS02004409 CONDUIT    119.98     0  03:23      1.02    0.04    0.22
  WS02004406WS02004407 CONDUIT    121.46     0  03:23      0.41    0.05    0.40
  WS02004405WS02004406 CONDUIT    126.51     0  03:23      0.23    0.25    0.65
  WS02004404WS02004405 CONDUIT    135.13     0  03:23      0.29    1.32    0.65
  WS02004403WS02004404 CONDUIT    135.24     0  03:22      0.36    0.10    0.61
  WS02004402WS02004403 CONDUIT    141.41     0  03:22      0.40    0.20    0.55
  WS02004139WS02001211 CONDUIT    287.22     0  05:07      0.54    0.36    0.51
  WS02004138WS02004139 CONDUIT    285.67     0  05:06      2.39    0.06    0.37
  WS02003067WS02003066 CONDUIT    109.47     0  03:32      0.48    0.04    0.25
  WS02001213WS02003059 CONDUIT    292.83     0  03:54      0.59    0.48    0.62
  WS02001212WS02001213 CONDUIT    292.66     0  02:40      1.19    0.45    0.35
  WS02001211WS02001212 CONDUIT    292.66     0  03:57      0.67    0.22    0.54
  WS02003072WS02003073 CONDUIT    387.27     0  07:00      1.27    0.84    0.32
  WS02003069WS02003072 CONDUIT    387.34     0  06:59      1.22    0.19    0.32
  WS02003060WS02003069 CONDUIT    387.02     0  06:58      1.50    0.15    0.28
  WS02003059WS02003060 CONDUIT    293.12     0  03:55      0.82    0.19    0.49
  HS02004901HS02004770 CONDUIT      1.75     0  02:13      0.03    0.01    0.18
  HS02004876HS02004881 CONDUIT      4.90     0  02:34      0.19    0.05    0.04
  HS02004870HS02004876 CONDUIT      3.89     0  02:31      0.14    0.00    0.04
  HS02004842HS02004848 CONDUIT      1.30     0  02:32      0.01    0.00    0.25
  HS02004837HS02004842 CONDUIT      4.49     0  00:03      0.42    0.00    0.26
  HS02004830HS02004837 CONDUIT      9.77     0  02:21      0.30    0.01    0.05
  HS02004824HS02004830 CONDUIT      9.92     0  02:22      0.35    0.01    0.04
  HS02004817HS02004824 CONDUIT     12.07     0  02:25      0.17    0.01    0.33
  HS02004770HS02004777 CONDUIT      7.82     0  02:13      0.08    0.01    0.20
  HS02004799HS02004480 CONDUIT     20.16     0  02:31      0.21    0.03    0.14
  HS02004792HS02004799 CONDUIT     18.48     0  02:30      0.25    0.01    0.11
  HS02004788HS02004792 CONDUIT     11.05     0  02:34      0.42    0.01    0.04
  HS02004785HS02004788 CONDUIT      7.19     0  02:35      0.20    0.05    0.05
  HS02004777HS02004785 CONDUIT      7.13     0  02:32      0.07    0.01    0.14
  HS02004480HS02004478 CONDUIT     23.60     0  02:32      0.42    0.10    0.08
  HS02004479HS02004480 CONDUIT      3.67     0  02:15      0.15    0.00    0.14
  HS02004862HS02004870 CONDUIT      2.74     0  02:31      0.21    0.00    0.02
  HS02004848HS02004852 CONDUIT      0.72     0  02:27      0.12    0.00    0.01
  HS02004856HS02004862 CONDUIT      1.59     0  02:29      0.14    0.00    0.02
  HS02004852HS02004856 CONDUIT      0.71     0  02:30      0.02    0.00    0.06
  HS02004802HS02004478 CONDUIT     14.76     0  02:27      0.14    0.01    0.15
  HS02004478WS02006287 CONDUIT     38.32     0  02:31      0.60    0.01    0.07
  HS02004817HS02004807 CONDUIT     12.60     0  02:29      0.05    0.01    0.40
  HS02004807HS02004802 CONDUIT     14.84     0  02:24      0.19    0.03    0.19
  YS02001759YS02001757 CONDUIT     22.59     0  03:35      0.12    0.02    0.86
  YS02001762YS02001759 CONDUIT     13.05     0  03:35      0.17    0.02    0.80
  YS02001765YS02001762 CONDUIT     12.20     0  03:34      0.22    0.01    0.75
  YS02001770YS02001767 CONDUIT     12.82     0  03:39      0.24    0.05    0.69
  YS02001774YS02001770 CONDUIT      7.96     0  03:20      0.14    0.01    0.70
  YS02001779YS02001774 CONDUIT      4.29     0  03:22      0.02    0.00    0.62
  YS02001649YS02001757 CONDUIT     32.14     0  03:41      0.09    0.02    0.85
  YS02001767YS02001765 CONDUIT     12.36     0  03:39      0.26    0.02    0.71
  YS02006561YS02001783 CONDUIT     42.59     0  03:07      1.07    0.02    0.13
  YS02001783YS02001784 CONDUIT     42.58     0  03:07      0.66    0.06    0.19
  YS02001784YS02001785 CONDUIT     43.64     0  03:08      0.64    0.10    0.19
  YS02001788YS02001790 CONDUIT     43.76     0  03:09      1.05    0.03    0.14
  YS02001790YS02001791 CONDUIT     43.92     0  03:09      1.24    0.05    0.13
  YS02001791YS02001793 CONDUIT     45.12     0  02:58      2.40    0.02    0.40
  YS02001910YS02001907 CONDUIT     13.92     0  03:06      0.49    0.01    0.49
  YS02001786YS02001788 CONDUIT     43.69     0  03:08      0.91    0.08    0.15
  YS02001915YS02001910 CONDUIT     13.96     0  03:04      0.44    0.01    0.28
  YS02001918YS02001915 CONDUIT      6.21     0  03:08      0.44    0.00    0.11
  YS02001923YS02001920 CONDUIT      3.34     0  03:05      0.13    0.00    0.07
  YS02001926YS02001923 CONDUIT      3.30     0  03:04      0.21    0.00    0.05
  YS02001929YS02001926 CONDUIT      3.27     0  03:01      0.20    0.00    0.05
  YS02001920YS02001918 CONDUIT      6.21     0  03:06      0.21    0.01    0.08
  YS02001629YS02163301 CONDUIT      9.00     0  03:34      0.05    0.01    0.64
  YS02001619YS02001622 CONDUIT      7.58     0  03:00      0.36    0.01    0.26
  YS02001622YS02001625 CONDUIT      9.02     0  03:01      0.16    0.00    0.42
  YS02001625YS02001629 CONDUIT      7.96     0  03:40      0.07    0.00    0.41
  YS02163301YS02001633 CONDUIT     10.43     0  03:26      0.05    0.01    0.69
  YS02163601YS02164001 CONDUIT     15.80     0  03:41      0.04    0.01    0.75
  YS02164001YS02001641 CONDUIT     15.05     0  03:40      0.06    0.02    0.73
  YS02001641YS02001644 CONDUIT     15.17     0  03:27      0.07    0.05    0.74
  YS02001647YS02001649 CONDUIT     21.23     0  03:36      0.10    0.01    0.68
  YS02006553YS02006556 CONDUIT     29.43     0  03:09      0.18    0.03    0.57
  YS02006556YS02006558 CONDUIT     29.43     0  03:09      0.07    0.02    0.60
  YSB6556YSB1171       CONDUIT      2.09     0  01:22      0.03    0.00    0.41
  YS02001907YS02006553 CONDUIT     29.40     0  03:09      0.06    0.03    0.66
  YS02006558YS02006561 CONDUIT     42.59     0  03:06      1.31    0.09    0.17
  YS02001633YS02163601 CONDUIT     15.57     0  03:40      0.06    0.02    0.74
  YS02001644YS02001647 CONDUIT     22.10     0  03:40      0.09    0.01    0.66
  YS02001745YS02001748 CONDUIT      8.50     0  03:01      0.75    0.00    0.04
  YS02001748YS02001751 CONDUIT      8.54     0  03:01      0.63    0.00    0.20
  YS02001751YS02001754 CONDUIT     10.59     0  04:17      0.62    0.01    0.41
  YS02001754YS02001757 CONDUIT     14.67     0  04:51      0.33    0.01    0.74
  YS02001882YS02001884 CONDUIT      1.14     0  02:10      0.07    0.00    0.21
  YS02001884YS02001887 CONDUIT      3.43     0  02:13      0.04    0.00    0.30
  YS02001890YS02001895 CONDUIT     15.59     0  03:03      0.09    0.01    0.27
  YS02001895YS02001898 CONDUIT     15.54     0  03:04      0.30    0.03    0.14
  YS02001898YS02001901 CONDUIT     15.55     0  03:05      0.12    0.01    0.22
  YS02001901YS02001904 CONDUIT     15.52     0  03:05      0.18    0.02    0.27
  YS02001904YS02001907 CONDUIT     15.53     0  03:05      0.05    0.01    0.43
  YS02001887YS02001890 CONDUIT     15.71     0  03:00      0.10    0.03    0.36
  YS02001652YS02001649 CONDUIT     12.01     0  03:35      0.24    0.01    0.68
  YS02001655YS02001652 CONDUIT     11.45     0  03:42      0.67    0.01    0.44
  YS02001658YS02001655 CONDUIT     10.86     0  03:01      0.72    0.00    0.18
  YS02001661YS02001658 CONDUIT     10.86     0  03:01      0.78    0.00    0.05
  YS02001664YS02001661 CONDUIT     10.87     0  03:01      0.37    0.00    0.08
  YSB1154YSB6556       CONDUIT      2.11     0  02:14      0.19    0.00    0.30
  YSB1174YSB1171       CONDUIT      2.33     0  02:11      0.02    0.00    0.42
  YSB1171HS02004479    CONDUIT      3.74     0  02:15      0.54    0.00    0.31
  HS02004881HS02006253 CONDUIT      5.49     0  02:34      0.77    0.00    0.01
  YS02001793JiankangQianchi CONDUIT    193.74     0  03:55      0.44    0.02    0.78
  YS02001757CaochengTiaoxuchi CONDUIT     56.47     0  03:37      0.20    0.02    0.55
  WSF200WS02003060     CONDUIT    109.42     0  03:32      0.83    0.02    0.18
  1                    CONDUIT    388.94     0  07:01      2.55    0.14    0.25
  CC-Pump-1            PUMP         0.00     0  00:00              0.00
  CC-Pump-2            PUMP         0.00     0  00:00              0.00
  JK-Pump-1            PUMP       300.00     0  03:12              1.00
  JK-Pump-2            PUMP         0.00     0  00:00              0.00
  XR-Pump-1            PUMP        95.00     0  00:00              1.00
  XR-Pump-2            PUMP        95.00     0  00:25              1.00
  XR-Pump-3            PUMP        95.00     0  02:21              1.00
  XR-Pump-4            PUMP         0.00     0  00:00              0.00
  
  
  ***************************
  Flow Classification Summary
  ***************************
  
  -------------------------------------------------------------------------------------
                      Adjusted    ---------- Fraction of Time in Flow Class ---------- 
                       /Actual         Up    Down  Sub   Sup   Up    Down  Norm  Inlet 
  Conduit               Length    Dry  Dry   Dry   Crit  Crit  Crit  Crit  Ltd   Ctrl  
  -------------------------------------------------------------------------------------
  WS02003066WSF200        1.00   0.32  0.00  0.00  0.00  0.68  0.00  0.00  0.65  0.00
  WS02006287WS02006284    1.00   0.09  0.07  0.00  0.74  0.10  0.00  0.00  0.81  0.00
  WS02006284WS02006280    1.00   0.12  0.00  0.00  0.00  0.00  0.00  0.88  0.00  0.00
  WS02006280WS02006229    1.00   0.12  0.00  0.00  0.00  0.00  0.00  0.88  0.00  0.00
  WS02006229WS02006228    1.00   0.00  0.00  0.00  0.99  0.00  0.00  0.01  0.00  0.00
  WS02006256WS02006235    1.00   0.19  0.00  0.00  0.79  0.02  0.00  0.00  0.07  0.00
  WS02006253WS02006251    1.00   0.04  0.06  0.00  0.89  0.00  0.01  0.00  0.00  0.00
  WS02006252WS02006251    1.00   1.00  0.00  0.00  0.00  0.00  0.00  0.00  0.00  0.00
  WS02006251WS02006249    1.00   0.00  0.00  0.00  1.00  0.00  0.00  0.00  0.98  0.00
  WS02006249WS02006248    1.00   0.00  0.02  0.00  0.00  0.00  0.98  0.00  0.00  0.00
  WS02006248WS02006247    1.00   0.02  0.00  0.00  0.94  0.00  0.00  0.05  0.86  0.00
  WS02006247WS02006245    1.00   0.02  0.00  0.00  0.90  0.00  0.00  0.08  0.00  0.00
  WS02006245WS02006243    1.00   0.03  0.00  0.00  0.72  0.00  0.00  0.25  0.01  0.00
  WS02006243WS02006242    1.00   0.03  0.00  0.00  0.85  0.00  0.00  0.11  0.73  0.00
  WS02006242WS02006240    1.00   0.04  0.11  0.00  0.83  0.00  0.02  0.00  0.00  0.00
  WS02006240WS02006239    1.00   0.15  0.00  0.00  0.25  0.00  0.00  0.59  0.03  0.00
  WS02006239WS02006238    1.00   0.15  0.00  0.00  0.81  0.00  0.00  0.03  0.31  0.00
  WS02006238WS02006235    1.00   0.16  0.03  0.00  0.81  0.00  0.00  0.00  0.00  0.00
  WS02006235WS02006234    1.00   0.22  0.02  0.00  0.45  0.00  0.31  0.00  0.00  0.00
  WS02006234WS02006232    1.00   0.25  0.00  0.00  0.75  0.00  0.00  0.00  0.13  0.00
  WS02006232WS02006231    1.00   0.25  0.05  0.00  0.67  0.00  0.03  0.00  0.00  0.00
  WS02006231WS02006230    1.00   0.30  0.00  0.00  0.00  0.00  0.70  0.00  0.00  0.00
  WS02006230WS02006229    1.00   0.00  0.00  0.00  0.97  0.00  0.00  0.03  0.03  0.00
  WS02006228WS02006109    1.00   0.00  0.00  0.00  1.00  0.00  0.00  0.00  0.00  0.00
  WS02006116WS02004401    1.00   0.09  0.00  0.00  0.91  0.00  0.00  0.00  0.01  0.00
  WS02006115WS02006116    1.00   0.09  0.00  0.00  0.82  0.00  0.00  0.09  0.00  0.00
  WS02006113WS02006111    1.00   0.05  0.00  0.00  0.03  0.92  0.00  0.00  0.04  0.00
  WS02006112WS02006115    1.00   0.06  0.03  0.00  0.90  0.00  0.00  0.00  0.00  0.00
  WS02006111WS02006112    1.00   0.06  0.00  0.00  0.93  0.00  0.00  0.01  0.92  0.00
  WS02006110WS02006113    1.00   0.01  0.04  0.00  0.95  0.00  0.00  0.00  0.00  0.00
  WS02006109WS02006110    1.00   0.00  0.01  0.00  0.98  0.00  0.01  0.00  0.00  0.00
  WS02004411WS02004412    1.00   0.25  0.00  0.00  0.75  0.00  0.00  0.00  0.00  0.00
  WS02004401WS02004402    1.00   0.09  0.00  0.00  0.91  0.00  0.00  0.00  0.04  0.00
  WS02004413WS02003067    1.00   0.26  0.04  0.00  0.00  0.00  0.70  0.00  0.00  0.00
  WS02004412WS02004413    1.00   0.25  0.00  0.00  0.74  0.00  0.00  0.00  0.01  0.00
  WS02004410WS02004411    1.00   0.25  0.00  0.00  0.75  0.00  0.00  0.00  0.00  0.00
  WS02004409WS02004410    1.00   0.25  0.00  0.00  0.75  0.00  0.00  0.00  0.00  0.00
  WS02004407WS02004409    1.00   0.25  0.00  0.00  0.74  0.01  0.00  0.00  0.71  0.00
  WS02004406WS02004407    1.00   0.00  0.24  0.00  0.75  0.00  0.00  0.00  0.00  0.00
  WS02004405WS02004406    1.00   0.00  0.00  0.00  1.00  0.00  0.00  0.00  0.04  0.00
  WS02004404WS02004405    1.00   0.00  0.00  0.00  1.00  0.00  0.00  0.00  0.03  0.00
  WS02004403WS02004404    1.00   0.00  0.10  0.00  0.90  0.00  0.00  0.00  0.04  0.00
  WS02004402WS02004403    1.00   0.10  0.00  0.00  0.90  0.00  0.00  0.00  0.00  0.00
  WS02004139WS02001211    1.00   0.00  0.00  0.00  1.00  0.00  0.00  0.00  0.00  0.00
  WS02004138WS02004139    1.00   0.00  0.00  0.00  0.99  0.01  0.00  0.00  1.00  0.00
  WS02003067WS02003066    1.00   0.30  0.01  0.00  0.68  0.00  0.00  0.00  0.00  0.00
  WS02001213WS02003059    1.00   0.00  0.01  0.00  0.99  0.00  0.00  0.00  0.00  0.00
  WS02001212WS02001213    1.00   0.01  0.00  0.00  0.00  0.00  0.99  0.00  0.00  0.00
  WS02001211WS02001212    1.00   0.00  0.01  0.00  0.99  0.00  0.00  0.00  0.00  0.00
  WS02003072WS02003073    1.00   0.00  0.00  0.00  0.00  0.00  0.00  1.00  0.00  0.00
  WS02003069WS02003072    1.00   0.00  0.00  0.00  1.00  0.00  0.00  0.00  0.95  0.00
  WS02003060WS02003069    1.00   0.00  0.00  0.00  0.98  0.02  0.00  0.00  0.61  0.00
  WS02003059WS02003060    1.00   0.00  0.00  0.00  1.00  0.00  0.00  0.00  0.02  0.00
  HS02004901HS02004770    1.00   0.12  0.01  0.00  0.88  0.00  0.00  0.00  0.03  0.00
  HS02004876HS02004881    1.00   0.02  0.00  0.00  0.98  0.00  0.00  0.00  0.00  0.00
  HS02004870HS02004876    1.00   0.00  0.00  0.00  0.99  0.01  0.00  0.00  0.95  0.00
  HS02004842HS02004848    1.00   0.00  0.13  0.00  0.87  0.00  0.00  0.00  0.79  0.00
  HS02004837HS02004842    1.00   0.00  0.00  0.00  0.99  0.01  0.00  0.00  0.11  0.00
  HS02004830HS02004837    1.00   0.00  0.00  0.00  1.00  0.00  0.00  0.00  0.99  0.00
  HS02004824HS02004830    1.00   0.00  0.00  0.00  1.00  0.00  0.00  0.00  0.00  0.00
  HS02004817HS02004824    1.00   0.00  0.00  0.00  1.00  0.00  0.00  0.00  1.00  0.00
  HS02004770HS02004777    1.00   0.00  0.12  0.00  0.88  0.00  0.00  0.00  0.08  0.00
  HS02004799HS02004480    1.00   0.00  0.03  0.00  0.81  0.00  0.15  0.00  0.00  0.00
  HS02004792HS02004799    1.00   0.00  0.00  0.00  0.99  0.01  0.00  0.00  0.98  0.00
  HS02004788HS02004792    1.00   0.00  0.00  0.00  0.99  0.01  0.00  0.00  0.98  0.00
  HS02004785HS02004788    1.00   0.00  0.00  0.00  1.00  0.00  0.00  0.00  0.00  0.00
  HS02004777HS02004785    1.00   0.00  0.00  0.00  1.00  0.00  0.00  0.00  0.23  0.00
  HS02004480HS02004478    1.00   0.16  0.00  0.00  0.68  0.00  0.02  0.14  0.00  0.00
  HS02004479HS02004480    1.00   0.03  0.00  0.00  0.97  0.00  0.00  0.00  0.17  0.00
  HS02004862HS02004870    1.00   0.00  0.00  0.00  1.00  0.00  0.00  0.00  0.06  0.00
  HS02004848HS02004852    1.00   0.13  0.00  0.00  0.87  0.00  0.00  0.00  0.68  0.00
  HS02004856HS02004862    1.00   0.00  0.25  0.00  0.75  0.00  0.00  0.00  0.71  0.00
  HS02004852HS02004856    1.00   0.12  0.06  0.00  0.82  0.00  0.00  0.00  0.79  0.00
  HS02004802HS02004478    1.00   0.12  0.03  0.00  0.85  0.00  0.00  0.00  0.00  0.00
  HS02004478WS02006287    1.00   0.16  0.00  0.00  0.84  0.00  0.00  0.00  0.80  0.00
  HS02004817HS02004807    1.00   0.00  0.12  0.00  0.88  0.00  0.00  0.00  0.00  0.00
  HS02004807HS02004802    1.00   0.12  0.00  0.00  0.87  0.00  0.00  0.01  0.01  0.00
  YS02001759YS02001757    1.00   0.00  0.00  0.00  1.00  0.00  0.00  0.00  0.17  0.00
  YS02001762YS02001759    1.00   0.00  0.00  0.00  1.00  0.00  0.00  0.00  0.07  0.00
  YS02001765YS02001762    1.00   0.00  0.00  0.00  1.00  0.00  0.00  0.00  0.25  0.00
  YS02001770YS02001767    1.00   0.00  0.00  0.00  1.00  0.00  0.00  0.00  0.00  0.00
  YS02001774YS02001770    1.00   0.00  0.18  0.00  0.81  0.00  0.00  0.00  0.06  0.00
  YS02001779YS02001774    1.00   0.00  0.00  0.00  1.00  0.00  0.00  0.00  0.32  0.00
  YS02001649YS02001757    1.00   0.00  0.00  0.00  1.00  0.00  0.00  0.00  0.20  0.00
  YS02001767YS02001765    1.00   0.00  0.00  0.00  1.00  0.00  0.00  0.00  0.01  0.00
  YS02006561YS02001783    1.00   0.26  0.00  0.00  0.00  0.74  0.00  0.00  0.69  0.00
  YS02001783YS02001784    1.00   0.00  0.26  0.00  0.74  0.00  0.00  0.00  0.70  0.00
  YS02001784YS02001785    1.00   0.00  0.00  0.00  1.00  0.00  0.00  0.00  0.29  0.00
  YS02001788YS02001790    1.00   0.00  0.00  0.00  0.28  0.72  0.00  0.00  1.00  0.00
  YS02001790YS02001791    1.00   0.00  0.00  0.00  0.01  0.99  0.00  0.00  0.00  0.00
  YS02001791YS02001793    1.00   0.00  0.00  0.00  0.24  0.76  0.00  0.00  0.28  0.00
  YS02001910YS02001907    1.00   0.00  0.00  0.00  0.98  0.00  0.00  0.02  0.13  0.00
  YS02001786YS02001788    1.00   0.00  0.00  0.00  0.88  0.12  0.00  0.00  0.00  0.00
  YS02001915YS02001910    1.00   0.00  0.00  0.00  0.99  0.01  0.00  0.00  0.27  0.00
  YS02001918YS02001915    1.00   0.00  0.00  0.00  0.98  0.01  0.00  0.00  0.77  0.00
  YS02001923YS02001920    1.00   0.00  0.00  0.00  1.00  0.00  0.00  0.00  1.00  0.00
  YS02001926YS02001923    1.00   0.00  0.06  0.00  0.00  0.00  0.94  0.00  0.00  0.00
  YS02001929YS02001926    1.00   0.00  0.12  0.00  0.88  0.00  0.00  0.00  0.86  0.00
  YS02001920YS02001918    1.00   0.00  0.00  0.00  1.00  0.00  0.00  0.00  0.00  0.00
  YS02001629YS02163301    1.00   0.22  0.02  0.00  0.77  0.00  0.00  0.00  0.00  0.00
  YS02001619YS02001622    1.00   0.11  0.00  0.00  0.89  0.00  0.00  0.00  0.00  0.00
  YS02001622YS02001625    1.00   0.12  0.00  0.00  0.88  0.00  0.00  0.00  0.17  0.00
  YS02001625YS02001629    1.00   0.13  0.16  0.00  0.57  0.00  0.14  0.00  0.00  0.00
  YS02163301YS02001633    1.00   0.00  0.21  0.00  0.79  0.00  0.00  0.00  0.00  0.00
  YS02163601YS02164001    1.00   0.00  0.07  0.00  0.93  0.00  0.00  0.00  0.00  0.00
  YS02164001YS02001641    1.00   0.01  0.06  0.00  0.93  0.00  0.00  0.00  0.07  0.00
  YS02001641YS02001644    1.00   0.00  0.01  0.00  0.99  0.00  0.00  0.00  0.00  0.00
  YS02001647YS02001649    1.00   0.00  0.26  0.00  0.74  0.00  0.00  0.00  0.01  0.00
  YS02006553YS02006556    1.00   0.01  0.00  0.00  0.99  0.00  0.00  0.00  0.03  0.00
  YS02006556YS02006558    1.00   0.00  0.00  0.00  1.00  0.00  0.00  0.00  0.00  0.00
  YSB6556YSB1171          1.00   0.03  0.07  0.00  0.89  0.00  0.00  0.00  0.00  0.00
  YS02001907YS02006553    1.00   0.00  0.02  0.00  0.98  0.00  0.00  0.00  0.00  0.00
  YS02006558YS02006561    1.00   0.26  0.00  0.00  0.00  0.74  0.00  0.00  0.39  0.00
  YS02001633YS02163601    1.00   0.00  0.01  0.00  0.99  0.00  0.00  0.00  0.21  0.00
  YS02001644YS02001647    1.00   0.00  0.26  0.00  0.74  0.00  0.00  0.00  0.00  0.00
  YS02001745YS02001748    1.00   0.00  0.00  0.00  0.00  0.00  0.00  1.00  0.00  0.00
  YS02001748YS02001751    1.00   0.00  0.00  0.00  0.81  0.19  0.00  0.00  0.58  0.00
  YS02001751YS02001754    1.00   0.00  0.00  0.00  0.69  0.00  0.00  0.31  0.08  0.00
  YS02001754YS02001757    1.00   0.00  0.00  0.00  1.00  0.00  0.00  0.00  0.31  0.00
  YS02001882YS02001884    1.00   0.20  0.02  0.00  0.78  0.00  0.00  0.00  0.00  0.00
  YS02001884YS02001887    1.00   0.05  0.05  0.00  0.90  0.00  0.00  0.00  0.00  0.00
  YS02001890YS02001895    1.00   0.00  0.22  0.00  0.77  0.00  0.00  0.00  0.00  0.00
  YS02001895YS02001898    1.00   0.23  0.01  0.00  0.73  0.00  0.04  0.00  0.00  0.00
  YS02001898YS02001901    1.00   0.20  0.03  0.00  0.77  0.00  0.00  0.00  0.02  0.00
  YS02001901YS02001904    1.00   0.20  0.00  0.00  0.80  0.00  0.00  0.00  0.00  0.00
  YS02001904YS02001907    1.00   0.00  0.20  0.00  0.80  0.00  0.00  0.00  0.00  0.00
  YS02001887YS02001890    1.00   0.00  0.00  0.00  0.97  0.00  0.02  0.00  0.00  0.00
  YS02001652YS02001649    1.00   0.00  0.00  0.00  1.00  0.00  0.00  0.00  0.30  0.00
  YS02001655YS02001652    1.00   0.00  0.00  0.00  0.70  0.00  0.00  0.30  0.08  0.00
  YS02001658YS02001655    1.00   0.00  0.19  0.00  0.61  0.20  0.00  0.00  0.74  0.00
  YS02001661YS02001658    1.00   0.19  0.00  0.00  0.00  0.81  0.00  0.00  0.73  0.00
  YS02001664YS02001661    1.00   0.11  0.00  0.00  0.89  0.00  0.00  0.00  0.86  0.00
  YSB1154YSB6556          1.00   0.11  0.00  0.00  0.89  0.00  0.00  0.00  0.03  0.00
  YSB1174YSB1171          1.00   0.04  0.04  0.00  0.92  0.00  0.00  0.00  0.00  0.00
  YSB1171HS02004479       1.00   0.03  0.00  0.00  0.95  0.00  0.00  0.01  0.14  0.00
  HS02004881HS02006253    1.00   0.05  0.00  0.00  0.00  0.00  0.00  0.95  0.00  0.00
  YS02001793JiankangQianchi    1.00   0.00  0.00  0.00  1.00  0.00  0.00  0.00  0.70  0.00
  YS02001757CaochengTiaoxuchi    1.00   0.00  0.44  0.00  0.56  0.00  0.00  0.00  0.00  0.00
  WSF200WS02003060        1.00   0.00  0.32  0.00  0.68  0.00  0.00  0.00  0.66  0.00
  1                       1.00   0.00  0.00  0.00  0.00  1.00  0.00  0.00  0.22  0.00
  
  
  *************************
  Conduit Surcharge Summary
  *************************
  
  ----------------------------------------------------------------------------
                                                           Hours        Hours 
                         --------- Hours Full --------   Above Full   Capacity
  Conduit                Both Ends  Upstream  Dnstream   Normal Flow   Limited
  ----------------------------------------------------------------------------
  WS02006256WS02006235        0.50      0.53      3.33      0.47         0.01
  WS02006235WS02006234        0.01      0.01      0.01      0.42         0.01
  WS02006231WS02006230        0.01      0.01      0.01      0.69         0.01
  WS02006230WS02006229        0.01      0.01      0.01      1.10         0.01
  WS02004404WS02004405        0.01      0.01      0.01      0.26         0.01
  YS02001793JiankangQianchi        0.01      0.01      7.82      0.01         0.01
  
  
  ***************
  Pumping Summary
  ***************
  
  ---------------------------------------------------------------------------------------------------------
                                                  Min       Avg       Max     Total     Power    % Time Off
                        Percent   Number of      Flow      Flow      Flow    Volume     Usage    Pump Curve
  Pump                 Utilized   Start-Ups       LPS       LPS       LPS  10^6 ltr     Kw-hr    Low   High
  ---------------------------------------------------------------------------------------------------------
  CC-Pump-1                0.00           0      0.00      0.00      0.00     0.000      0.00    0.0    0.0
  CC-Pump-2                0.00           0      0.00      0.00      0.00     0.000      0.00    0.0    0.0
  JK-Pump-1                5.84           6      0.00    300.00    300.00     0.494      6.09    0.0    0.0
  JK-Pump-2                0.00           0      0.00      0.00      0.00     0.000      0.00    0.0    0.0
  XR-Pump-1              100.00           1      0.00     95.00     95.00     2.679     20.49    0.0    0.0
  XR-Pump-2               94.70           1      0.00     95.00     95.00     2.537     19.06    0.0    0.0
  XR-Pump-3               15.80           4      0.00     95.00     95.00     0.423      3.18    0.0    0.0
  XR-Pump-4                0.00           0      0.00      0.00      0.00     0.000      0.00    0.0    0.0
  
  
  ***************************
  Link Pollutant Load Summary
  ***************************
  
  ------------------------------------------------------------------------------------------
                                 COD            SS            TN            TP         NH4-N
  Link                            kg            kg            kg            kg            kg
  ------------------------------------------------------------------------------------------
  WS02003066WSF200            75.255       119.227         6.409         0.785         3.965
  WS02006287WS02006284        58.841        93.915         5.255         0.649         3.264
  WS02006284WS02006280        59.263        94.589         5.295         0.654         3.289
  WS02006280WS02006229        59.238        94.549         5.293         0.654         3.287
  WS02006229WS02006228        83.267       131.732         7.092         0.868         4.387
  WS02006256WS02006235        24.244        37.473         1.862         0.223         1.141
  WS02006253WS02006251         2.388         3.802         0.147         0.017         0.088
  WS02006252WS02006251         0.000         0.000         0.000         0.000         0.000
  WS02006251WS02006249         2.940         4.685         0.199         0.023         0.120
  WS02006249WS02006248         2.846         4.533         0.191         0.022         0.115
  WS02006248WS02006247         2.853         4.545         0.191         0.022         0.115
  WS02006247WS02006245         3.304         5.248         0.225         0.026         0.136
  WS02006245WS02006243         3.832         6.067         0.264         0.031         0.160
  WS02006243WS02006242         5.386         8.474         0.381         0.045         0.231
  WS02006242WS02006240         8.769        13.692         0.635         0.075         0.387
  WS02006240WS02006239        11.726        18.255         0.862         0.102         0.526
  WS02006239WS02006238        15.115        23.480         1.125         0.134         0.687
  WS02006238WS02006235        17.431        27.048         1.307         0.156         0.799
  WS02006235WS02006234        24.804        38.428         1.872         0.223         1.145
  WS02006234WS02006232        25.315        39.226         1.909         0.227         1.168
  WS02006232WS02006231        24.504        37.958         1.848         0.220         1.131
  WS02006231WS02006230        24.826        38.450         1.874         0.223         1.146
  WS02006230WS02006229        24.901        38.566         1.879         0.224         1.149
  WS02006228WS02006109        82.146       129.945         6.985         0.855         4.321
  WS02006116WS02004401        84.570       133.857         7.214         0.883         4.463
  WS02006115WS02006116        85.600       135.483         7.306         0.895         4.521
  WS02006113WS02006111        88.116       139.496         7.560         0.927         4.680
  WS02006112WS02006115        86.381       136.728         7.379         0.904         4.566
  WS02006111WS02006112        87.688       138.817         7.519         0.922         4.654
  WS02006110WS02006113        88.352       139.876         7.582         0.929         4.694
  WS02006109WS02006110        89.471       141.671         7.690         0.943         4.761
  WS02004411WS02004412        77.524       122.805         6.609         0.809         4.089
  WS02004401WS02004402        83.539       132.228         7.122         0.872         4.406
  WS02004413WS02003067        75.860       120.181         6.462         0.791         3.998
  WS02004412WS02004413        76.596       121.345         6.528         0.799         4.039
  WS02004410WS02004411        78.115       123.733         6.660         0.816         4.121
  WS02004409WS02004410        78.546       124.411         6.697         0.820         4.144
  WS02004407WS02004409        78.888       124.947         6.727         0.824         4.162
  WS02004406WS02004407        79.034       125.175         6.740         0.825         4.170
  WS02004405WS02004406        80.890       128.111         6.907         0.846         4.274
  WS02004404WS02004405        81.927       129.719         6.991         0.856         4.326
  WS02004403WS02004404        81.594       129.166         6.951         0.851         4.301
  WS02004402WS02004403        82.480       130.561         7.029         0.861         4.349
  WS02004139WS02001211      1207.948      1932.468       115.873        14.481        72.410
  WS02004138WS02004139      1213.564      1941.451       116.411        14.548        72.746
  WS02003067WS02003066        75.288       119.280         6.412         0.785         3.967
  WS02001213WS02003059      1242.599      1987.916       119.202        14.897        74.491
  WS02001212WS02001213      1250.436      2000.452       119.953        14.991        74.960
  WS02001211WS02001212      1252.232      2003.326       120.126        15.012        75.068
  WS02003072WS02003073      1420.206      2270.927       135.444        16.911        84.602
  WS02003069WS02003072      1424.233      2277.369       135.830        16.959        84.842
  WS02003060WS02003069      1425.735      2279.767       135.972        16.977        84.931
  WS02003059WS02003060      1240.229      1984.125       118.975        14.869        74.349
  HS02004901HS02004770         0.267         0.419         0.006         0.000         0.003
  HS02004876HS02004881         2.193         3.488         0.145         0.017         0.087
  HS02004870HS02004876         2.027         3.232         0.149         0.017         0.090
  HS02004842HS02004848         0.121         0.182         0.003         0.000         0.001
  HS02004837HS02004842         4.558         7.288         0.434         0.054         0.271
  HS02004830HS02004837        43.101        68.941         4.096         0.511         2.558
  HS02004824HS02004830        43.854        70.145         4.169         0.520         2.604
  HS02004817HS02004824        44.701        71.458         4.211         0.525         2.628
  HS02004770HS02004777         1.113         1.758         0.029         0.002         0.013
  HS02004799HS02004480        17.383        27.643         1.440         0.175         0.887
  HS02004792HS02004799        17.603        27.994         1.491         0.182         0.920
  HS02004788HS02004792        14.411        23.013         1.282         0.158         0.795
  HS02004785HS02004788         2.605         4.154         0.180         0.021         0.108
  HS02004777HS02004785         2.187         3.486         0.141         0.016         0.084
  HS02004480HS02004478        17.260        27.442         1.383         0.168         0.849
  HS02004479HS02004480         4.807         7.685         0.415         0.051         0.258
  HS02004862HS02004870         1.792         2.844         0.144         0.017         0.088
  HS02004848HS02004852         0.116         0.173         0.003         0.000         0.001
  HS02004856HS02004862         0.254         0.395         0.006         0.000         0.003
  HS02004852HS02004856         0.120         0.180         0.003         0.000         0.001
  HS02004802HS02004478        41.963        67.084         3.909         0.486         2.438
  HS02004478WS02006287        59.029        94.215         5.273         0.651         3.275
  HS02004817HS02004807        43.269        69.168         4.074         0.508         2.542
  HS02004807HS02004802        42.809        68.437         3.990         0.496         2.488
  YS02001759YS02001757         7.441        10.855         0.380         0.040         0.221
  YS02001762YS02001759         5.367         8.053         0.324         0.036         0.193
  YS02001765YS02001762         5.735         8.682         0.377         0.043         0.227
  YS02001770YS02001767         3.577         5.157         0.151         0.014         0.084
  YS02001774YS02001770         1.092         1.578         0.042         0.004         0.023
  YS02001779YS02001774         1.035         1.598         0.077         0.009         0.047
  YS02001649YS02001757         8.339        11.771         0.356         0.035         0.195
  YS02001767YS02001765         6.188         9.409         0.424         0.049         0.256
  YS02006561YS02001783        36.316        55.388         2.598         0.305         1.580
  YS02001783YS02001784        36.259        55.302         2.594         0.305         1.578
  YS02001784YS02001785        43.645        67.127         3.304         0.394         2.022
  YS02001788YS02001790        44.369        68.294         3.376         0.403         2.067
  YS02001790YS02001791        45.385        69.923         3.475         0.415         2.128
  YS02001791YS02001793        45.378        69.915         3.474         0.415         2.128
  YS02001910YS02001907        23.971        37.538         2.065         0.251         1.277
  YS02001786YS02001788        43.920        67.572         3.332         0.397         2.039
  YS02001915YS02001910        24.251        37.940         2.082         0.253         1.287
  YS02001918YS02001915        21.729        34.417         2.010         0.249         1.252
  YS02001923YS02001920         1.828         2.570         0.098         0.010         0.057
  YS02001926YS02001923         1.436         1.938         0.059         0.006         0.033
  YS02001929YS02001926         1.099         1.396         0.026         0.001         0.013
  YS02001920YS02001918        21.768        34.477         2.013         0.250         1.254
  YS02001629YS02163301         1.399         1.913         0.044         0.003         0.021
  YS02001619YS02001622         1.904         2.565         0.056         0.003         0.025
  YS02001622YS02001625         1.789         2.418         0.052         0.003         0.023
  YS02001625YS02001629         1.491         2.027         0.045         0.003         0.021
  YS02163301YS02001633         1.362         1.874         0.047         0.004         0.023
  YS02163601YS02164001         4.833         6.919         0.248         0.026         0.143
  YS02164001YS02001641         4.503         6.404         0.219         0.023         0.125
  YS02001641YS02001644         4.332         6.106         0.193         0.020         0.109
  YS02001647YS02001649         5.711         7.907         0.216         0.020         0.117
  YS02006553YS02006556        30.648        47.156         2.332         0.279         1.429
  YS02006556YS02006558        30.509        46.903         2.305         0.275         1.412
  YSB6556YSB1171               1.549         2.466         0.119         0.015         0.073
  YS02001907YS02006553        30.526        46.948         2.319         0.277         1.421
  YS02006558YS02006561        36.340        55.425         2.600         0.306         1.582
  YS02001633YS02163601         4.935         6.981         0.232         0.024         0.132
  YS02001644YS02001647         5.911         8.153         0.224         0.021         0.122
  YS02001745YS02001748         2.652         3.609         0.072         0.004         0.035
  YS02001748YS02001751         2.964         4.113         0.102         0.008         0.054
  YS02001751YS02001754         2.923         4.080         0.105         0.008         0.055
  YS02001754YS02001757         4.901         7.300         0.307         0.034         0.183
  YS02001882YS02001884         0.102         0.151         0.006         0.001         0.004
  YS02001884YS02001887         0.442         0.663         0.028         0.003         0.017
  YS02001890YS02001895         7.735        11.141         0.330         0.034         0.190
  YS02001895YS02001898         7.661        11.032         0.325         0.034         0.187
  YS02001898YS02001901         7.576        10.912         0.321         0.033         0.184
  YS02001901YS02001904         7.830        11.346         0.351         0.037         0.204
  YS02001904YS02001907         8.805        12.948         0.455         0.050         0.269
  YS02001887YS02001890         8.591        12.475         0.404         0.043         0.236
  YS02001652YS02001649         3.463         4.982         0.157         0.015         0.085
  YS02001655YS02001652         3.786         5.434         0.173         0.017         0.094
  YS02001658YS02001655         2.878         3.949         0.081         0.005         0.035
  YS02001661YS02001658         2.866         3.929         0.081         0.005         0.035
  YS02001664YS02001661         2.869         3.932         0.081         0.005         0.035
  YSB1154YSB6556               0.982         1.547         0.054         0.006         0.033
  YSB1174YSB1171               1.079         1.731         0.079         0.010         0.049
  YSB1171HS02004479            4.571         7.308         0.391         0.048         0.242
  HS02004881HS02006253         2.333         3.715         0.147         0.017         0.088
  YS02001793JiankangQianchi        44.328        68.307         3.389         0.405         2.076
  YS02001757CaochengTiaoxuchi        13.858        19.664         0.578         0.055         0.320
  WSF200WS02003060            74.898       118.665         6.377         0.781         3.945
  1                         1426.165      2280.477       136.020        16.983        84.962
  CC-Pump-1                    0.000         0.000         0.000         0.000         0.000
  CC-Pump-2                    0.000         0.000         0.000         0.000         0.000
  JK-Pump-1                   27.704        42.792         2.121         0.254         1.300
  JK-Pump-2                    0.000         0.000         0.000         0.000         0.000
  XR-Pump-1                  562.639       900.107        53.972         6.745        33.727
  XR-Pump-2                  555.598       888.842        53.296         6.660        33.305
  XR-Pump-3                   98.266       157.203         9.426         1.178         5.890
  XR-Pump-4                    0.000         0.000         0.000         0.000         0.000
  

  Analysis begun on:  Sat Jul 10 23:22:08 2021
  Analysis ended on:  Sat Jul 10 23:22:08 2021
  Total elapsed time: < 1 sec