
  EPA STORM WATER MANAGEMENT MODEL - VERSION 5.1 (Build 5.3.0.dev0)
  --------------------------------------------------------------

  WARNING 04: minimum elevation drop used for Conduit WS02004404WS02004405
  WARNING 03: negative offset ignored for Link YS02001904YS02001907
  
  *********************************************************
  NOTE: The summary statistics displayed in this report are
  based on results found at every computational time step,  
  not just on results from each reporting time step.
  *********************************************************
  
  ****************
  Analysis Options
  ****************
  Flow Units ............... LPS
  Process Models:
    Rainfall/Runoff ........ YES
    RDII ................... NO
    Snowmelt ............... NO
    Groundwater ............ NO
    Flow Routing ........... YES
    Ponding Allowed ........ NO
    Water Quality .......... YES
  Infiltration Method ...... HORTON
  Flow Routing Method ...... DYNWAVE
  Surcharge Method ......... EXTRAN
  Starting Date ............ 08/28/2015 08:00:00
  Ending Date .............. 08/28/2015 16:00:00
  Antecedent Dry Days ...... 8.0
  Report Time Step ......... 00:01:00
  Wet Time Step ............ 00:01:00
  Dry Time Step ............ 00:01:00
  Routing Time Step ........ 5.00 sec
  Variable Time Step ....... YES
  Maximum Trials ........... 8
  Number of Threads ........ 4
  Head Tolerance ........... 0.001500 m
  
  
  **************************        Volume         Depth
  Runoff Quantity Continuity     hectare-m            mm
  **************************     ---------       -------
  Total Precipitation ......        10.887        23.836
  Evaporation Loss .........         0.000         0.000
  Infiltration Loss ........         1.418         3.104
  Surface Runoff ...........         8.323        18.222
  Final Storage ............         1.148         2.513
  Continuity Error (%) .....        -0.015
  
  
  **************************           COD            SS            TN            TP         NH4-N
  Runoff Quality Continuity             kg            kg            kg            kg            kg
  **************************    ----------    ----------    ----------    ----------    ----------
  Initial Buildup ..........     41378.656     70582.865      1804.177       168.684      1032.807
  Surface Buildup ..........        44.730        99.549         2.633         0.232         1.473
  Wet Deposition ...........         0.000         0.000         0.000         0.000         0.000
  Sweeping Removal .........         0.000         0.000         0.000         0.000         0.000
  Infiltration Loss ........       168.080       326.771         3.336         0.241         1.609
  BMP Removal ..............         0.000         0.000         0.000         0.000         0.000
  Surface Runoff ...........      9382.764     18311.870       184.103        12.981        88.313
  Remaining Buildup ........     31869.465     52037.902      1619.303       155.690       944.326
  Continuity Error (%) .....         0.007         0.008         0.004         0.003         0.003
  
  
  **************************        Volume        Volume
  Flow Routing Continuity        hectare-m      10^6 ltr
  **************************     ---------     ---------
  Dry Weather Inflow .......         0.630         6.296
  Wet Weather Inflow .......         8.321        83.213
  Groundwater Inflow .......         0.000         0.000
  RDII Inflow ..............         0.000         0.000
  External Inflow ..........         0.105         1.045
  External Outflow .........         1.812        18.122
  Flooding Loss ............         6.664        66.644
  Evaporation Loss .........         0.000         0.000
  Exfiltration Loss ........         0.000         0.000
  Initial Stored Volume ....         0.076         0.761
  Final Stored Volume ......         0.660         6.604
  Continuity Error (%) .....        -0.061
  
  
  **************************           COD            SS            TN            TP         NH4-N
  Quality Routing Continuity            kg            kg            kg            kg            kg
  **************************    ----------    ----------    ----------    ----------    ----------
  Dry Weather Inflow .......      1573.993      2518.389       151.103        18.888        94.440
  Wet Weather Inflow .......      9382.120     18310.821       184.088        12.980        88.306
  Groundwater Inflow .......         0.000         0.000         0.000         0.000         0.000
  RDII Inflow ..............         0.000         0.000         0.000         0.000         0.000
  External Inflow ..........       187.321       299.713        17.983         2.248        11.239
  External Outflow .........      2309.869      4219.587       109.126        12.003        63.724
  Flooding Loss ............      8066.833     15483.899       216.485        19.323       114.739
  Exfiltration Loss ........         0.000         0.000         0.000         0.000         0.000
  Mass Reacted .............         0.000         0.000         0.000         0.000         0.000
  Initial Stored Mass ......         0.000         0.000         0.000         0.000         0.000
  Final Stored Mass ........       767.183      1431.411        27.117         2.732        15.236
  Continuity Error (%) .....        -0.004        -0.028         0.126         0.170         0.148
  
  
  *************************
  Highest Continuity Errors
  *************************
  Node YS02001884 (9.52%)
  Node HS02004842 (7.72%)
  Node HS02004817 (1.57%)
  Node YSB1171 (1.37%)
  Node YS02163301 (1.13%)
  
  
  ***************************
  Time-Step Critical Elements
  ***************************
  Link WS02006280WS02006229 (29.56%)
  Link WS02006238WS02006235 (21.32%)
  Link YS02006556YS02006558 (15.43%)
  Link WS02003066WSF200 (5.15%)
  Link YS02001661YS02001658 (3.25%)
  
  
  ********************************
  Highest Flow Instability Indexes
  ********************************
  Link WS02006113WS02006111 (64)
  Link YS02163601YS02164001 (27)
  Link YS02163301YS02001633 (25)
  Link YS02001629YS02163301 (25)
  Link WS02006111WS02006112 (24)
  
  
  *************************
  Routing Time Step Summary
  *************************
  Minimum Time Step           :     0.50 sec
  Average Time Step           :     2.34 sec
  Maximum Time Step           :     5.00 sec
  Percent in Steady State     :     0.00
  Average Iterations per Step :     3.34
  Percent Not Converging      :    10.14
  
  
  ***************************
  Subcatchment Runoff Summary
  ***************************
  
  ------------------------------------------------------------------------------------------------------------------------------
                            Total      Total      Total      Total     Imperv       Perv      Total       Total     Peak  Runoff
                           Precip      Runon       Evap      Infil     Runoff     Runoff     Runoff      Runoff   Runoff   Coeff
  Subcatchment                 mm         mm         mm         mm         mm         mm         mm    10^6 ltr      LPS
  ------------------------------------------------------------------------------------------------------------------------------
  sub0                      23.84       0.00       0.00       0.77      22.13       0.90      23.02        0.02     5.06   0.966
  sub1                      23.84       0.00       0.00       1.33      21.12       1.29      22.42        0.15    33.98   0.940
  sub2                      23.84       0.00       0.00       5.60      14.93       3.22      18.15        0.17    32.49   0.761
  sub3                      23.84       0.00       0.00       5.94      14.89       2.88      17.77        0.40    70.76   0.746
  sub4                      23.84       0.00       0.00       1.46      20.96       1.16      22.12        0.46    81.55   0.928
  sub5                      23.84       0.00       0.00       0.82      22.07       0.85      22.93        0.26    59.56   0.962
  sub7                      23.84       0.00       0.00       1.03      21.63       1.11      22.74        0.08    19.22   0.954
  sub8                      23.84       0.00       0.00       1.05      21.62       1.10      22.72        0.15    35.26   0.953
  sub9                      23.84       0.00       0.00       1.05      21.62       1.10      22.71        0.11    26.33   0.953
  sub10                     23.84       0.00       0.00       0.94      21.84       0.97      22.81        0.25    58.74   0.957
  sub11                     23.84       0.00       0.00       0.92      21.86       0.99      22.85        0.27    65.28   0.959
  sub12                     23.84       0.00       0.00       1.50      20.69       1.60      22.29        0.19    51.10   0.935
  sub14                     23.84       0.00       0.00       1.05      21.62       1.09      22.71        0.22    51.81   0.953
  sub15                     23.84       0.00       0.00       4.05      16.62       3.10      19.72        0.34    74.01   0.827
  sub16                     23.84       0.00       0.00       4.23      15.93       3.63      19.56        0.20    48.29   0.821
  sub17                     23.84       0.00       0.00       4.13      16.17       3.50      19.67        0.17    39.49   0.825
  sub22                     23.84       0.00       0.00       6.08      13.55       4.17      17.72        1.12   235.47   0.743
  sub23                     23.84       0.00       0.00       5.01      14.97       3.81      18.78        0.90   197.86   0.788
  sub60                     23.84       0.00       0.00       2.13      18.89       0.73      19.63        5.95   667.30   0.823
  sub61                     23.84       0.00       0.00       3.01      18.57       1.04      19.60        6.04   717.95   0.822
  sub62                     23.84       0.00       0.00       1.25      20.37       0.65      21.02        6.46   751.14   0.882
  sub63                     23.84       0.00       0.00       5.57      16.07       1.34      17.42        5.27   638.31   0.731
  sub64                     23.84       0.00       0.00       2.78      18.18       0.79      18.97        5.77   644.78   0.796
  sub65                     23.84       0.00       0.00       2.36      18.54       0.74      19.28        5.93   658.64   0.809
  sub66                     23.84       0.00       0.00       5.92      15.42       0.99      16.41        5.03   574.80   0.689
  sub67                     23.84       0.00       0.00       1.18      20.95       0.73      21.68        6.69   814.16   0.910
  sub68                     23.84       0.00       0.00       2.35      19.39       0.99      20.38        6.27   750.28   0.855
  sub69                     23.84       0.00       0.00       2.36      19.64       1.21      20.85        4.87   655.18   0.875
  sub70                     23.84      21.29       0.00      10.13      28.17       5.22      33.38        7.64   861.91   0.740
  sub71                     23.84       0.00       0.00       1.29      20.08       0.62      20.70        4.89   557.88   0.868
  sub72                     23.84       0.00       0.00       1.26      17.61       0.41      18.02        3.67   352.81   0.756
  1                         23.84      32.51       0.00       1.40      34.72      12.67      47.39       11.14  1042.57   0.841
  2                         23.84       0.00       0.00       3.09       5.81       5.87      11.68        4.67   438.27   0.490
  
  
  ****************************
  Subcatchment Washoff Summary
  ****************************
  
  ------------------------------------------------------------------------------------------
                                 COD            SS            TN            TP         NH4-N
  Subcatchment                    kg            kg            kg            kg            kg
  ------------------------------------------------------------------------------------------
  sub0                         5.447        10.648         0.101         0.009         0.050
  sub1                        23.688        48.042         0.463         0.033         0.225
  sub2                        16.966        34.031         0.358         0.025         0.167
  sub3                        41.903        83.509         0.867         0.061         0.406
  sub4                        55.507       114.756         1.120         0.071         0.542
  sub5                        53.600       106.723         1.016         0.079         0.498
  sub7                        11.854        24.343         0.233         0.016         0.114
  sub8                        17.650        37.231         0.360         0.022         0.174
  sub9                        15.191        31.538         0.304         0.020         0.147
  sub10                       44.044        88.979         0.851         0.062         0.416
  sub11                       42.563        86.978         0.834         0.059         0.406
  sub12                       37.050        74.157         0.712         0.055         0.347
  sub14                       32.601        66.963         0.643         0.044         0.313
  sub15                       47.434        94.407         0.941         0.071         0.448
  sub16                       30.857        61.246         0.608         0.047         0.290
  sub17                       28.315        55.641         0.547         0.044         0.262
  sub22                      161.087       316.749         3.138         0.242         1.488
  sub23                       88.506       179.789         1.886         0.128         0.879
  sub60                      598.344      1178.908        11.877         0.761         5.730
  sub61                      736.068      1436.782        13.949         0.989         6.764
  sub62                      738.540      1463.835        14.545         0.960         7.035
  sub63                      558.943      1077.056        11.149         0.807         5.246
  sub64                      777.492      1479.304        14.547         1.088         7.009
  sub65                      791.436      1511.452        14.887         1.096         7.181
  sub66                      451.426       868.821         9.100         0.616         4.299
  sub67                     1074.243      2092.188        20.037         1.514         9.765
  sub68                      790.053      1552.644        15.337         1.072         7.395
  sub69                      691.205      1362.870        13.308         0.965         6.426
  sub70                     1290.326      2537.678        26.802         1.932        12.782
  sub71                      488.998       981.149         9.988         0.605         4.811
  sub72                      442.986       835.563         8.315         0.589         4.024
  1                         1060.964      2097.547        22.233         1.602        10.518
  2                          119.003       220.893         3.158         0.194         1.368
  ------------------------------------------------------------------------------------------
  System                   11364.294     22212.418       224.213        15.877       107.522
  
  
  ******************
  Node Depth Summary
  ******************
  
  ---------------------------------------------------------------------------------
                                 Average  Maximum  Maximum  Time of Max    Reported
                                   Depth    Depth      HGL   Occurrence   Max Depth
  Node                 Type       Meters   Meters   Meters  days hr:min      Meters
  ---------------------------------------------------------------------------------
  WS02001211           JUNCTION     0.71     0.79     5.63     0  01:42        0.79
  WS02001212           JUNCTION     0.43     0.54     5.60     0  01:41        0.54
  WS02001213           JUNCTION     0.67     0.82     5.58     0  01:41        0.82
  WS02003069           JUNCTION     0.49     0.70     5.29     0  01:42        0.70
  WS02003072           JUNCTION     0.55     0.75     5.12     0  01:43        0.75
  WS02003073           JUNCTION     0.33     0.47     4.53     0  01:42        0.47
  WS02003060           JUNCTION     0.43     0.62     5.55     0  01:42        0.62
  WS02003066           JUNCTION     0.25     0.40     5.95     0  01:35        0.40
  WS02003059           JUNCTION     0.73     0.88     5.57     0  01:42        0.88
  WS02003067           JUNCTION     0.58     0.83     6.15     0  01:34        0.83
  WS02004401           JUNCTION     0.75     1.51     7.51     0  01:31        1.30
  WS02004402           JUNCTION     0.77     1.46     7.42     0  01:31        1.29
  WS02004403           JUNCTION     0.78     1.41     7.34     0  01:31        1.25
  WS02004404           JUNCTION     0.84     1.43     7.28     0  01:31        1.29
  WS02004406           JUNCTION     0.83     1.27     7.10     0  01:31        1.19
  WS02004409           JUNCTION     0.55     1.04     6.81     0  01:34        1.02
  WS02004410           JUNCTION     0.56     1.00     6.72     0  01:34        0.99
  WS02004411           JUNCTION     0.57     0.97     6.65     0  01:34        0.97
  WS02004412           JUNCTION     0.57     0.94     6.58     0  01:34        0.93
  WS02004413           JUNCTION     0.71     1.05     6.52     0  01:34        1.04
  WS02004405           JUNCTION     0.83     1.39     7.24     0  01:31        1.26
  WS02006109           JUNCTION     0.89     1.92     8.54     0  01:32        1.88
  WS02006110           JUNCTION     0.85     1.83     8.42     0  01:31        1.64
  WS02006111           JUNCTION     0.34     1.32     8.03     0  01:31        1.02
  WS02006112           JUNCTION     0.95     1.94     7.82     0  01:31        1.67
  WS02006113           JUNCTION     0.42     1.48     8.37     0  01:31        1.09
  WS02006115           JUNCTION     0.67     1.57     7.71     0  01:31        1.32
  WS02006116           JUNCTION     0.74     1.57     7.61     0  01:31        1.35
  WS02006230           JUNCTION     0.91     2.17     8.91     0  01:32        2.11
  WS02006231           JUNCTION     0.64     1.77     8.89     0  01:32        1.73
  WS02006232           JUNCTION     0.76     1.83     8.87     0  01:32        1.79
  WS02006234           JUNCTION     0.67     1.69     8.84     0  01:32        1.67
  WS02006235           JUNCTION     0.69     1.67     8.84     0  01:32        1.65
  WS02006238           JUNCTION     0.71     1.69     8.83     0  01:32        1.67
  WS02006240           JUNCTION     0.58     1.50     8.80     0  01:32        1.50
  WS02006242           JUNCTION     0.61     1.51     8.78     0  01:32        1.50
  WS02006243           JUNCTION     0.47     1.33     8.75     0  01:32        1.32
  WS02006245           JUNCTION     0.42     1.25     8.73     0  01:32        1.23
  WS02006247           JUNCTION     0.41     1.21     8.71     0  01:32        1.21
  WS02006248           JUNCTION     0.34     1.10     8.69     0  01:29        1.10
  WS02006249           JUNCTION     0.34     1.09     8.69     0  01:30        1.09
  WS02006239           JUNCTION     0.66     1.60     8.81     0  01:32        1.59
  WS02006251           JUNCTION     0.29     1.71     9.38     0  01:30        1.08
  WS02006252           JUNCTION     0.11     1.17     9.42     0  01:30        0.51
  WS02006253           JUNCTION     0.33     2.75    10.40     0  01:30        1.13
  WS02006256           JUNCTION     1.98     2.35     9.28     0  01:25        2.35
  WS02004138           JUNCTION     0.16     0.17     7.42     0  05:35        0.17
  WS02004139           JUNCTION     0.65     0.73     5.64     0  01:42        0.73
  WS02004407           JUNCTION     0.24     0.42     6.73     0  01:32        0.42
  WS02006228           JUNCTION     0.93     2.13     8.78     0  01:32        2.08
  WS02006229           JUNCTION     0.93     2.25     8.94     0  01:32        2.18
  WS02006280           JUNCTION     0.12     0.54     8.81     0  01:32        0.52
  WS02006284           JUNCTION     0.43     0.72     9.12     0  01:32        0.72
  WS02006287           JUNCTION     0.17     0.46     9.42     0  01:35        0.46
  WSF200               JUNCTION     0.25     0.45     5.68     0  01:40        0.45
  HS02004901           JUNCTION     0.19     0.43    10.25     0  01:33        0.43
  HS02004881           JUNCTION     0.02     0.08     9.11     0  01:30        0.06
  HS02004876           JUNCTION     0.07     0.19     9.22     0  01:34        0.19
  HS02004870           JUNCTION     0.04     0.11     9.40     0  01:35        0.11
  HS02004862           JUNCTION     0.04     0.13     9.51     0  01:35        0.13
  HS02004856           JUNCTION     0.10     0.17     9.59     0  01:35        0.17
  HS02004852           JUNCTION     0.03     0.10     9.61     0  01:35        0.10
  HS02004848           JUNCTION     0.03     0.08     9.68     0  01:36        0.08
  HS02004842           JUNCTION     0.35     0.41     9.68     0  01:35        0.41
  HS02004837           JUNCTION     0.05     0.10     9.68     0  01:35        0.10
  HS02004830           JUNCTION     0.06     0.15     9.62     0  01:35        0.15
  HS02004824           JUNCTION     0.05     0.20     9.61     0  01:34        0.20
  HS02004817           JUNCTION     0.50     0.77     9.61     0  01:35        0.77
  HS02004807           JUNCTION     0.18     0.44     9.61     0  01:35        0.44
  HS02004802           JUNCTION     0.22     0.47     9.60     0  01:35        0.47
  HS02004799           JUNCTION     0.21     0.55     9.76     0  01:33        0.55
  HS02004792           JUNCTION     0.08     0.27     9.79     0  01:33        0.27
  HS02004788           JUNCTION     0.06     0.19    10.09     0  01:34        0.19
  HS02004785           JUNCTION     0.10     0.29    10.19     0  01:33        0.29
  HS02004777           JUNCTION     0.20     0.44    10.24     0  01:33        0.44
  HS02004770           JUNCTION     0.18     0.42    10.25     0  01:33        0.42
  HS02004480           JUNCTION     0.16     0.46     9.70     0  01:33        0.46
  HS02004479           JUNCTION     0.19     0.49     9.70     0  01:34        0.49
  HS02004478           JUNCTION     0.12     0.35     9.58     0  01:35        0.35
  YS02001745           JUNCTION     0.81     1.18     8.70     0  01:29        1.05
  YS02001748           JUNCTION     1.20     1.85     8.93     0  01:28        1.47
  YS02001751           JUNCTION     1.37     1.76     8.64     0  01:28        1.64
  YS02001754           JUNCTION     1.61     1.89     8.50     0  01:29        1.89
  YS02001762           JUNCTION     1.80     2.07     8.47     0  03:01        2.07
  YS02001765           JUNCTION     1.75     2.02     8.47     0  03:10        2.02
  YS02001767           JUNCTION     1.72     1.97     8.46     0  03:18        1.97
  YS02001770           JUNCTION     1.71     1.95     8.44     0  01:26        1.95
  YS02001774           JUNCTION     1.76     2.01     8.43     0  01:26        1.99
  YS02001779           JUNCTION     1.50     1.68     8.37     0  01:26        1.68
  YS02001882           JUNCTION     0.93     1.65     8.37     0  01:33        1.64
  YS02001884           JUNCTION     1.02     1.75     8.36     0  01:48        1.74
  YS02001759           JUNCTION     1.84     2.11     8.48     0  03:01        2.11
  YS02001887           JUNCTION     1.10     1.82     8.36     0  01:57        1.82
  YS02001890           JUNCTION     1.12     1.81     8.32     0  01:33        1.81
  YS02001898           JUNCTION     0.88     1.56     8.30     0  01:41        1.56
  YS02001901           JUNCTION     1.00     1.68     8.29     0  01:42        1.67
  YS02001904           JUNCTION     0.97     1.64     8.27     0  01:58        1.63
  YS02001907           JUNCTION     1.29     1.96     8.25     0  01:33        1.96
  YS02001910           JUNCTION     1.10     1.86     8.37     0  01:34        1.80
  YS02001915           JUNCTION     0.91     1.72     8.44     0  01:34        1.63
  YS02001918           JUNCTION     0.63     1.49     8.56     0  01:34        1.34
  YS02001619           JUNCTION     1.30     1.61     8.54     0  01:27        1.57
  YS02001629           JUNCTION     1.64     1.85     8.40     0  01:27        1.85
  YS02001641           JUNCTION     1.73     1.96     8.40     0  01:29        1.93
  YS02001644           JUNCTION     1.73     1.92     8.35     0  01:29        1.92
  YS02001652           JUNCTION     1.61     2.03     8.62     0  01:29        1.87
  YS02001655           JUNCTION     1.39     1.95     8.80     0  01:29        1.63
  YS02001920           JUNCTION     0.73     1.65     8.66     0  01:34        1.43
  YS02001923           JUNCTION     0.53     1.47     8.73     0  01:34        1.21
  YS02001926           JUNCTION     0.51     1.46     8.91     0  01:34        1.03
  YS02001929           JUNCTION     0.34     0.99     8.68     0  01:34        0.80
  YS02001658           JUNCTION     1.13     1.77     8.91     0  01:29        1.38
  YS02001661           JUNCTION     0.91     2.01     9.41     0  01:29        1.16
  YS02001664           JUNCTION     0.43     0.69     8.62     0  01:30        0.69
  YS02001622           JUNCTION     1.32     1.62     8.52     0  01:27        1.57
  YS02001633           JUNCTION     1.73     1.97     8.43     0  01:29        1.94
  YS02001649           JUNCTION     1.80     2.05     8.44     0  01:29        2.05
  YS02001757           JUNCTION     1.93     2.21     8.47     0  02:18        2.21
  YS02001895           JUNCTION     0.88     1.57     8.31     0  01:34        1.56
  YS02001625           JUNCTION     1.59     1.78     8.38     0  01:27        1.78
  YS02163301           JUNCTION     1.67     1.92     8.44     0  01:27        1.88
  YS02163601           JUNCTION     1.77     2.03     8.43     0  01:29        1.98
  YS02164001           JUNCTION     1.71     1.96     8.42     0  01:29        1.91
  YS02001647           JUNCTION     1.58     1.80     8.41     0  01:29        1.79
  YSB1154              JUNCTION     0.33     0.65     9.70     0  01:33        0.65
  YSB6556              JUNCTION     0.22     0.53     9.70     0  01:33        0.53
  YSB1174              JUNCTION     0.28     0.59     9.70     0  01:33        0.59
  YSB1171              JUNCTION     0.48     0.80     9.70     0  01:34        0.80
  YS02006553           JUNCTION     1.29     1.97     8.26     0  01:50        1.97
  YS02006561           JUNCTION     0.57     1.09     7.75     0  01:58        1.08
  YS02006556           JUNCTION     1.26     1.96     8.27     0  01:38        1.94
  YS02006558           JUNCTION     1.30     2.00     8.27     0  01:38        1.98
  YS02001783           JUNCTION     0.83     1.47     7.61     0  01:58        1.46
  YS02001784           JUNCTION     0.82     1.41     7.48     0  01:58        1.41
  YS02001786           JUNCTION     0.71     1.25     7.28     0  01:53        1.24
  YS02001788           JUNCTION     0.60     1.12     7.10     0  01:54        1.11
  YS02001790           JUNCTION     0.70     1.27     6.92     0  01:58        1.26
  YS02001791           JUNCTION     0.63     1.25     6.72     0  01:59        1.24
  YS02001793           JUNCTION     0.96     1.77     6.60     0  01:58        1.76
  WSC                  OUTFALL      0.33     0.47     1.14     0  01:42        0.47
  JK-storage           STORAGE      4.84     5.77     6.57     0  03:01        5.77
  CC-storage           STORAGE      1.17     1.48     8.48     0  02:19        1.48
  XR-storage           STORAGE      7.59     7.72     5.72     0  01:26        7.72
  
  
  *******************
  Node Inflow Summary
  *******************
  
  -------------------------------------------------------------------------------------------------
                                  Maximum  Maximum                  Lateral       Total        Flow
                                  Lateral    Total  Time of Max      Inflow      Inflow     Balance
                                   Inflow   Inflow   Occurrence      Volume      Volume       Error
  Node                 Type           LPS      LPS  days hr:min    10^6 ltr    10^6 ltr     Percent
  -------------------------------------------------------------------------------------------------
  WS02001211           JUNCTION      7.35   297.03     0  03:15       0.212         7.8       0.488
  WS02001212           JUNCTION      0.00   302.01     0  03:14           0        7.76       0.250
  WS02001213           JUNCTION      0.00   305.93     0  03:14           0        7.75       0.282
  WS02003069           JUNCTION      0.32  1284.64     0  01:42     0.00922        18.2       0.130
  WS02003072           JUNCTION      0.00  1284.76     0  01:43           0        18.1       0.164
  WS02003073           JUNCTION      1.82  1286.53     0  01:43      0.0524        18.2       0.178
  WS02003060           JUNCTION     16.53  1284.73     0  01:41       0.476        18.2       0.124
  WS02003066           JUNCTION      0.00   994.47     0  01:35           0          10       0.030
  WS02003059           JUNCTION      0.00   311.00     0  03:15           0        7.73       0.494
  WS02003067           JUNCTION      0.00   992.24     0  01:34           0          10       0.066
  WS02004401           JUNCTION      0.00  1020.60     0  01:33           0        10.2       0.161
  WS02004402           JUNCTION      0.00  1021.54     0  01:33           0        10.2       0.158
  WS02004403           JUNCTION      0.00  1021.64     0  01:33           0        10.2       0.148
  WS02004404           JUNCTION      0.16  1023.08     0  01:33     0.00467        10.2       0.113
  WS02004406           JUNCTION      0.00  1024.34     0  01:33           0        10.1       0.282
  WS02004409           JUNCTION      0.00  1021.70     0  01:33           0        10.1       0.102
  WS02004410           JUNCTION      0.00  1002.75     0  01:34           0        10.1       0.118
  WS02004411           JUNCTION      0.00   989.17     0  01:37           0        10.1       0.124
  WS02004412           JUNCTION      0.00   989.00     0  01:37           0        10.1       0.139
  WS02004413           JUNCTION      0.00   991.67     0  01:34           0          10       0.223
  WS02004405           JUNCTION      0.04  1024.51     0  01:32      0.0011        10.1       0.176
  WS02006109           JUNCTION      1.23   982.28     0  01:32      0.0354        10.1       0.125
  WS02006110           JUNCTION      0.00   982.41     0  01:32           0        10.1       0.157
  WS02006111           JUNCTION      0.00   981.68     0  01:32           0        10.1       0.024
  WS02006112           JUNCTION     39.49  1020.97     0  01:32       0.169        10.2       0.207
  WS02006113           JUNCTION      0.00   982.01     0  01:32           0        10.1       0.060
  WS02006115           JUNCTION      0.00  1020.28     0  01:32           0        10.2       0.163
  WS02006116           JUNCTION      0.00  1020.13     0  01:33           0        10.2       0.101
  WS02006230           JUNCTION     10.28   343.44     0  03:14       0.296        5.63       0.161
  WS02006231           JUNCTION      0.00   332.86     0  03:13           0        5.32       0.050
  WS02006232           JUNCTION      0.00   332.73     0  03:13           0         5.3       0.143
  WS02006234           JUNCTION      0.00   332.45     0  03:13           0        5.28       0.078
  WS02006235           JUNCTION      0.00   332.53     0  03:13           0        5.59       0.031
  WS02006238           JUNCTION      0.00   259.71     0  01:26           0        1.13       0.211
  WS02006240           JUNCTION      0.00   261.68     0  01:27           0       0.996       0.338
  WS02006242           JUNCTION      0.00   231.01     0  01:27           0       0.919       0.524
  WS02006243           JUNCTION      0.00   243.29     0  01:27           0       0.851       0.344
  WS02006245           JUNCTION      0.00   256.00     0  01:28           0       0.807       0.426
  WS02006247           JUNCTION      0.00   215.76     0  01:28           0        0.78       0.090
  WS02006248           JUNCTION      0.00   288.41     0  01:28           0       0.834      -0.079
  WS02006249           JUNCTION      0.00   388.90     0  01:29           0       0.937       0.114
  WS02006239           JUNCTION      0.00   238.89     0  01:27           0        1.07       0.230
  WS02006251           JUNCTION      0.08   331.26     0  01:30     0.00222       0.931      -0.079
  WS02006252           JUNCTION      0.00   117.39     0  01:30           0     0.00521      -0.417
  WS02006253           JUNCTION      5.06   302.22     0  01:30      0.0186       0.918      -0.026
  WS02006256           JUNCTION      0.00   983.00     0  01:27           0        13.9      -0.045
  WS02004138           JUNCTION      0.00   285.00     0  01:17           0        7.62       0.052
  WS02004139           JUNCTION      0.32   285.32     0  04:11     0.00924        7.63       0.473
  WS02004407           JUNCTION      0.00  1025.24     0  01:33           0        10.1       0.051
  WS02006228           JUNCTION      0.00   981.22     0  01:32           0        10.1       0.108
  WS02006229           JUNCTION      0.00  1068.20     0  01:31           0        10.1       0.104
  WS02006280           JUNCTION      0.00   934.93     0  01:35           0        4.56       0.011
  WS02006284           JUNCTION      0.10   934.89     0  01:35     0.00275        4.57       0.015
  WS02006287           JUNCTION      0.00   934.73     0  01:35           0        4.56       0.019
  WSF200               JUNCTION      0.00   996.84     0  01:35           0          10       0.024
  HS02004901           JUNCTION     48.29    48.29     0  01:31       0.205       0.205       0.866
  HS02004881           JUNCTION     19.22   195.12     0  01:34      0.0766       0.897       0.051
  HS02004876           JUNCTION     33.98   176.89     0  01:34       0.149       0.821       0.066
  HS02004870           JUNCTION     35.26   143.34     0  01:34       0.145       0.672       0.017
  HS02004862           JUNCTION     32.69   109.55     0  01:35       0.175       0.527       0.033
  HS02004856           JUNCTION     26.33    76.91     0  01:35       0.109       0.354       0.408
  HS02004852           JUNCTION      0.00    51.63     0  01:36           0       0.245       0.024
  HS02004848           JUNCTION     70.76    70.76     0  01:38         0.4         0.4       0.013
  HS02004842           JUNCTION      0.00    21.86     0  01:49           0       0.168       8.367
  HS02004837           JUNCTION     65.09    82.02     0  01:35       0.434        0.59       0.133
  HS02004830           JUNCTION      0.15    82.12     0  01:35     0.00432        0.58       0.213
  HS02004824           JUNCTION     81.60   164.07     0  01:39       0.463        1.04       0.052
  HS02004817           JUNCTION      0.60   166.57     0  01:39      0.0173        1.06       1.598
  HS02004807           JUNCTION     65.28   225.57     0  01:36       0.265        1.31       0.341
  HS02004802           JUNCTION      0.00   226.44     0  01:36           0        1.31       0.295
  HS02004799           JUNCTION     51.81   605.47     0  01:33       0.216        2.83       0.117
  HS02004792           JUNCTION    235.75   554.35     0  01:33        1.13        2.61       0.015
  HS02004788           JUNCTION     75.68   319.93     0  01:33       0.387        1.48       0.026
  HS02004785           JUNCTION      0.15   244.47     0  01:33     0.00432         1.1       0.046
  HS02004777           JUNCTION      0.03   244.67     0  01:32    0.000864         1.1       0.478
  HS02004770           JUNCTION    197.86   245.56     0  01:32       0.896         1.1       0.279
  HS02004480           JUNCTION      0.00   713.04     0  01:33           0        3.28       0.023
  HS02004479           JUNCTION      0.00   107.72     0  01:33           0       0.464       0.161
  HS02004478           JUNCTION      0.00   934.63     0  01:35           0        4.57       0.007
  YS02001745           JUNCTION    667.30   667.30     0  03:01        5.95        5.95       0.197
  YS02001748           JUNCTION      0.04   667.49     0  03:01      0.0013        5.94       0.378
  YS02001751           JUNCTION      0.01   667.72     0  03:01    0.000317        5.92       0.407
  YS02001754           JUNCTION      0.26   668.22     0  03:01     0.00749        5.91       0.411
  YS02001762           JUNCTION      0.00   371.14     0  01:32           0         3.5       0.607
  YS02001765           JUNCTION      0.00   371.50     0  01:32           0        3.49       0.697
  YS02001767           JUNCTION      0.54   371.60     0  01:32      0.0154        3.52       1.020
  YS02001770           JUNCTION    751.30  1114.42     0  03:01        6.47        8.96       0.350
  YS02001774           JUNCTION      0.00   851.17     0  02:39           0        7.37       0.335
  YS02001779           JUNCTION      0.01   851.17     0  02:39    0.000144        7.34       0.206
  YS02001882           JUNCTION      0.00    39.48     0  01:30           0      0.0249       9.444
  YS02001884           JUNCTION      0.00    57.85     0  01:29           0       0.063      10.528
  YS02001759           JUNCTION    717.99   899.02     0  01:42        6.05        7.02       0.323
  YS02001887           JUNCTION    814.61   815.51     0  01:57         6.7        6.74       0.122
  YS02001890           JUNCTION      0.00   815.77     0  01:57           0        6.69       0.136
  YS02001898           JUNCTION      0.00   599.87     0  01:33           0         5.4       0.042
  YS02001901           JUNCTION      0.00   601.27     0  01:33           0         5.4       0.126
  YS02001904           JUNCTION      0.00   600.73     0  01:33           0         5.4       0.106
  YS02001907           JUNCTION      0.00  1427.84     0  03:01           0          14       0.165
  YS02001910           JUNCTION      0.00   911.21     0  03:01           0        8.63       0.133
  YS02001915           JUNCTION    557.90   911.09     0  03:01        4.89        8.68       0.070
  YS02001918           JUNCTION      0.00   381.32     0  01:35           0        3.83       0.039
  YS02001619           JUNCTION    574.80   574.80     0  03:01        5.03        5.03       0.233
  YS02001629           JUNCTION      0.00   294.59     0  01:27           0         2.1       1.352
  YS02001641           JUNCTION      0.00   468.18     0  01:28           0        6.17       0.341
  YS02001644           JUNCTION    644.82  1924.46     0  03:01        5.77        21.6       0.118
  YS02001652           JUNCTION      0.00   639.64     0  03:01           0        5.21       0.437
  YS02001655           JUNCTION      0.15   639.47     0  03:01     0.00443        5.24       0.484
  YS02001920           JUNCTION      2.87   381.31     0  01:35      0.0827        3.81       0.076
  YS02001923           JUNCTION      0.04   355.17     0  03:01     0.00109         3.7       0.042
  YS02001926           JUNCTION      0.05   352.50     0  03:01      0.0015        3.68       0.085
  YS02001929           JUNCTION    352.81   352.81     0  03:01        3.67        3.67       0.020
  YS02001658           JUNCTION      0.00   639.09     0  03:01           0        5.26       0.467
  YS02001661           JUNCTION      0.00   812.16     0  01:41           0        5.28       0.236
  YS02001664           JUNCTION    638.31   638.31     0  03:01        5.27        5.29       0.103
  YS02001622           JUNCTION      0.00   574.86     0  03:01           0        5.03       0.635
  YS02001633           JUNCTION    658.84   658.84     0  03:01        5.93        7.11       0.452
  YS02001649           JUNCTION      0.00  1447.55     0  03:01           0          13       0.283
  YS02001757           JUNCTION      0.00  2182.91     0  01:41           0          12       0.768
  YS02001895           JUNCTION      0.00   599.22     0  01:33           0        5.41       0.110
  YS02001625           JUNCTION      0.00   801.38     0  03:01           0        5.88       0.676
  YS02163301           JUNCTION      0.00   277.92     0  01:26           0         2.1       1.143
  YS02163601           JUNCTION      0.11   465.84     0  01:28     0.00317        6.18       0.486
  YS02164001           JUNCTION      0.00   466.55     0  01:28           0        6.16       0.324
  YS02001647           JUNCTION      0.00   846.70     0  03:17           0        10.1       0.279
  YSB1154              JUNCTION     59.56    59.56     0  01:33        0.26        0.26       0.556
  YSB6556              JUNCTION      0.00    59.45     0  01:33           0       0.261       0.487
  YSB1174              JUNCTION     51.10    51.10     0  01:30       0.195       0.195       0.657
  YSB1171              JUNCTION      0.00   108.26     0  01:32           0       0.462       1.393
  YS02006553           JUNCTION      0.00   730.82     0  04:03           0        7.74       0.192
  YS02006561           JUNCTION      0.00  1149.47     0  01:35           0          14       0.007
  YS02006556           JUNCTION      0.00   731.30     0  04:03           0        7.75       0.126
  YS02006558           JUNCTION    751.16  1149.57     0  01:35        6.29          14       0.031
  YS02001783           JUNCTION      0.00  1149.21     0  01:35           0          14       0.015
  YS02001784           JUNCTION      1.06  1150.44     0  01:35      0.0305          14       0.027
  YS02001786           JUNCTION      0.06  1150.04     0  01:36     0.00162          14       0.026
  YS02001788           JUNCTION      0.07  1150.13     0  01:35     0.00204          14       0.016
  YS02001790           JUNCTION      0.15  1161.00     0  01:34     0.00446          14       0.022
  YS02001791           JUNCTION      0.00  1247.97     0  01:34           0          14       0.004
  YS02001793           JUNCTION      0.00  1207.55     0  01:34           0          14      -0.035
  WSC                  OUTFALL       0.00  1286.54     0  01:42           0        18.1       0.000
  JK-storage           STORAGE       0.00  1179.59     0  01:34           0        14.2       0.034
  CC-storage           STORAGE       0.00  2182.39     0  01:41           0        4.26       1.549
  XR-storage           STORAGE    1680.85  1680.85     0  03:01        21.6        22.2      -0.003
  
  
  **********************
  Node Surcharge Summary
  **********************
  
  Surcharging occurs when water rises above the top of the highest conduit.
  ---------------------------------------------------------------------
                                               Max. Height   Min. Depth
                                   Hours       Above Crown    Below Rim
  Node                 Type      Surcharged         Meters       Meters
  ---------------------------------------------------------------------
  WS02004401           JUNCTION        1.73          0.509        1.151
  WS02004402           JUNCTION        1.75          0.459        1.281
  WS02004403           JUNCTION        1.75          0.412        1.618
  WS02004404           JUNCTION        1.84          0.434        2.346
  WS02004406           JUNCTION        1.81          0.272        2.178
  WS02004409           JUNCTION        0.14          0.038        2.322
  WS02004413           JUNCTION        0.73          0.047        2.153
  WS02004405           JUNCTION        1.82          0.388        2.412
  WS02006109           JUNCTION        2.22          1.103        0.717
  WS02006110           JUNCTION        1.94          0.924        0.926
  WS02006111           JUNCTION        0.60          0.509        1.361
  WS02006112           JUNCTION        2.02          0.937        0.743
  WS02006113           JUNCTION        0.62          0.675        1.255
  WS02006115           JUNCTION        1.25          0.563        1.687
  WS02006116           JUNCTION        1.34          0.514        1.776
  WS02006230           JUNCTION        1.84          1.089        0.481
  WS02006231           JUNCTION        1.87          1.058        0.472
  WS02006232           JUNCTION        2.06          1.129        0.351
  WS02006234           JUNCTION        1.92          0.965        0.275
  WS02006235           JUNCTION        1.96          0.962        0.328
  WS02006238           JUNCTION        1.97          0.967        0.463
  WS02006240           JUNCTION        1.83          0.793        0.597
  WS02006242           JUNCTION        1.84          0.777        0.043
  WS02006243           JUNCTION        1.74          0.624        0.146
  WS02006245           JUNCTION        1.45          0.540        0.310
  WS02006247           JUNCTION        1.38          0.503        0.257
  WS02006248           JUNCTION        1.08          0.380        0.000
  WS02006249           JUNCTION        1.10          0.390        0.000
  WS02006239           JUNCTION        1.88          0.865        0.425
  WS02006251           JUNCTION        0.37          0.677        0.503
  WS02006252           JUNCTION        0.63          0.775        0.325
  WS02006253           JUNCTION        0.59          1.713        0.767
  WS02006256           JUNCTION        6.61          2.050        0.000
  WS02006228           JUNCTION        2.21          1.303        0.897
  WS02006229           JUNCTION        0.01          0.068        1.002
  HS02004817           JUNCTION        0.46          0.066        1.674
  YS02001745           JUNCTION        1.11          0.183        1.167
  YS02001748           JUNCTION        6.52          0.768        0.422
  YS02001751           JUNCTION        6.53          0.762        0.438
  YS02001754           JUNCTION        6.54          0.841        0.309
  YS02001762           JUNCTION        6.57          1.072        0.078
  YS02001765           JUNCTION        6.56          1.017        0.083
  YS02001767           JUNCTION        6.56          0.975        0.055
  YS02001770           JUNCTION        6.56          0.920        0.000
  YS02001774           JUNCTION        6.57          1.006        0.044
  YS02001779           JUNCTION        6.54          0.680        0.000
  YS02001882           JUNCTION        2.56          0.651        0.179
  YS02001884           JUNCTION        2.58          0.688        0.182
  YS02001759           JUNCTION        6.58          1.114        0.096
  YS02001887           JUNCTION        2.63          0.775        0.175
  YS02001890           JUNCTION        2.65          0.760        0.000
  YS02001898           JUNCTION        2.53          0.532        0.208
  YS02001901           JUNCTION        2.60          0.678        0.192
  YS02001904           JUNCTION        2.59          0.639        0.211
  YS02001907           JUNCTION        3.15          0.950        0.000
  YS02001910           JUNCTION        2.69          0.859        0.241
  YS02001915           JUNCTION        2.55          0.723        0.277
  YS02001918           JUNCTION        2.41          0.492        0.318
  YS02001619           JUNCTION        6.54          0.610        0.000
  YS02001629           JUNCTION        6.54          0.470        0.000
  YS02001641           JUNCTION        6.57          0.960        0.140
  YS02001644           JUNCTION        6.57          0.920        0.000
  YS02001652           JUNCTION        6.54          0.997        0.133
  YS02001655           JUNCTION        6.53          0.951        0.249
  YS02001920           JUNCTION        2.44          0.647        0.493
  YS02001923           JUNCTION        0.01          0.258        0.562
  YS02001926           JUNCTION        0.01          0.461        0.439
  YS02001658           JUNCTION        6.52          0.773        0.527
  YS02001661           JUNCTION        1.42          0.937        0.453
  YS02001622           JUNCTION        6.54          0.620        0.000
  YS02001633           JUNCTION        6.56          0.954        0.106
  YS02001649           JUNCTION        6.57          1.050        0.000
  YS02001757           JUNCTION        6.59          1.210        0.000
  YS02001895           JUNCTION        2.54          0.567        0.183
  YS02001625           JUNCTION        6.55          0.780        0.000
  YS02163301           JUNCTION        6.56          0.921        0.109
  YS02163601           JUNCTION        6.57          1.028        0.052
  YS02164001           JUNCTION        6.57          0.960        0.140
  YS02001647           JUNCTION        6.55          0.796        0.104
  YS02006553           JUNCTION        3.21          0.974        0.216
  YS02006561           JUNCTION        2.43          0.292        0.858
  YS02006556           JUNCTION        2.85          0.916        0.434
  YS02006558           JUNCTION        2.82          0.899        0.501
  YS02001783           JUNCTION        2.65          0.673        0.927
  YS02001784           JUNCTION        2.62          0.614        0.876
  YS02001786           JUNCTION        2.52          0.451        0.979
  YS02001788           JUNCTION        2.38          0.319        1.161
  YS02001790           JUNCTION        2.48          0.474        0.683
  YS02001791           JUNCTION        2.48          0.448        1.472
  YS02001793           JUNCTION        2.60          0.769        1.831
  
  
  *********************
  Node Flooding Summary
  *********************
  
  Flooding refers to all water that overflows a node, whether it ponds or not.
  --------------------------------------------------------------------------
                                                             Total   Maximum
                                 Maximum   Time of Max       Flood    Ponded
                        Hours       Rate    Occurrence      Volume     Depth
  Node                 Flooded       LPS   days hr:min    10^6 ltr    Meters
  --------------------------------------------------------------------------
  WS02006248              0.44    188.79      0  01:37       0.175     0.000
  WS02006249              0.59    304.82      0  01:30       0.219     0.000
  WS02006256              5.78    848.92      0  01:32       9.196     0.000
  YS02001770              1.18    263.12      0  03:01       0.545     0.000
  YS02001779              4.48    851.17      0  02:39       7.322     0.000
  YS02001890              1.74    299.61      0  01:58       1.273     0.000
  YS02001907              2.27   1197.37      0  03:01       6.272     0.000
  YS02001619              0.01    103.07      0  01:27       0.000     0.000
  YS02001629              0.01    254.29      0  01:27       0.002     0.000
  YS02001644              6.51   1924.40      0  03:01      21.062     0.000
  YS02001622              0.01     84.56      0  01:27       0.000     0.000
  YS02001649              1.42    600.83      0  03:01       2.096     0.000
  YS02001757              0.70    179.42      0  03:01       0.231     0.000
  YS02001625              2.99    801.35      0  03:01       4.635     0.000
  XR-storage              6.56   1395.67      0  03:01      13.614     0.000
  
  
  **********************
  Storage Volume Summary
  **********************
  
  --------------------------------------------------------------------------------------------------
                         Average     Avg  Evap Exfil       Maximum     Max    Time of Max    Maximum
                          Volume    Pcnt  Pcnt  Pcnt        Volume    Pcnt     Occurrence    Outflow
  Storage Unit           1000 m3    Full  Loss  Loss       1000 m3    Full    days hr:min        LPS
  --------------------------------------------------------------------------------------------------
  JK-storage               0.243      83     0     0         0.290      99       0  03:01     983.00
  CC-storage               3.273      21     0     0         4.133      26       0  02:19     128.40
  XR-storage               0.911      98     0     0         0.926     100       0  01:26     285.00
  
  
  ***********************
  Outfall Loading Summary
  ***********************
  
  ---------------------------------------------------------------------------------------------------------------------------------
                         Flow       Avg       Max       Total         Total         Total         Total         Total         Total
                         Freq      Flow      Flow      Volume           COD            SS            TN            TP         NH4-N
  Outfall Node           Pcnt       LPS       LPS    10^6 ltr            kg            kg            kg            kg            kg
  ---------------------------------------------------------------------------------------------------------------------------------
  WSC                   99.99    724.80   1286.54      18.122      2309.976      4219.758       109.137        12.004        63.730
  ---------------------------------------------------------------------------------------------------------------------------------
  System                99.99    724.80   1286.54      18.122      2309.976      4219.758       109.137        12.004        63.730
  
  
  ********************
  Link Flow Summary
  ********************
  
  -----------------------------------------------------------------------------
                                 Maximum  Time of Max   Maximum    Max/    Max/
                                  |Flow|   Occurrence   |Veloc|    Full    Full
  Link                 Type          LPS  days hr:min     m/sec    Flow   Depth
  -----------------------------------------------------------------------------
  WS02003066WSF200     CONDUIT    996.84     0  01:35      3.16    0.17    0.33
  WS02006287WS02006284 CONDUIT    934.79     0  01:35      2.63    0.43    0.46
  WS02006284WS02006280 CONDUIT    934.93     0  01:35      2.85    0.39    0.46
  WS02006280WS02006229 CONDUIT    952.60     0  01:33      4.37    0.20    0.77
  WS02006229WS02006228 CONDUIT    981.22     0  01:32      1.95    3.25    1.00
  WS02006256WS02006235 CONDUIT    269.02     0  07:47      3.81    2.85    1.00
  WS02006253WS02006251 CONDUIT    258.90     0  01:30      0.81    0.78    1.00
  WS02006252WS02006251 CONDUIT    117.39     0  01:30      1.03    0.43    1.00
  WS02006251WS02006249 CONDUIT    289.20     0  01:30      0.86    0.83    1.00
  WS02006249WS02006248 CONDUIT    227.05     0  01:29      0.94    1.24    1.00
  WS02006248WS02006247 CONDUIT    182.68     0  01:29      0.90    0.40    1.00
  WS02006247WS02006245 CONDUIT    182.01     0  01:29      0.85    1.44    1.00
  WS02006245WS02006243 CONDUIT    221.12     0  01:28      0.95    0.65    1.00
  WS02006243WS02006242 CONDUIT    186.68     0  01:28      0.78    0.40    1.00
  WS02006242WS02006240 CONDUIT    231.01     0  01:27      0.67    0.92    1.00
  WS02006240WS02006239 CONDUIT    261.68     0  01:27      0.81    0.82    1.00
  WS02006239WS02006238 CONDUIT    238.89     0  01:27      0.74    0.76    1.00
  WS02006238WS02006235 CONDUIT    259.71     0  01:26      1.09    0.58    1.00
  WS02006235WS02006234 CONDUIT    332.45     0  03:13      1.05    3.51    1.00
  WS02006234WS02006232 CONDUIT    332.73     0  03:13      0.88    0.67    1.00
  WS02006232WS02006231 CONDUIT    332.86     0  03:13      0.86    0.70    1.00
  WS02006231WS02006230 CONDUIT    333.17     0  03:14      1.21    5.05    1.00
  WS02006230WS02006229 CONDUIT    346.07     0  03:14      0.90    7.70    1.00
  WS02006228WS02006109 CONDUIT    981.05     0  01:32      1.95    4.29    1.00
  WS02006116WS02004401 CONDUIT   1020.60     0  01:33      1.30    1.41    1.00
  WS02006115WS02006116 CONDUIT   1020.13     0  01:33      1.30    1.31    1.00
  WS02006113WS02006111 CONDUIT    981.68     0  01:32      2.72    1.18    1.00
  WS02006112WS02006115 CONDUIT   1020.28     0  01:32      1.30    0.60    1.00
  WS02006111WS02006112 CONDUIT    981.76     0  01:32      1.95    0.47    1.00
  WS02006110WS02006113 CONDUIT    982.01     0  01:32      1.95    0.89    1.00
  WS02006109WS02006110 CONDUIT    982.41     0  01:32      1.95    1.89    1.00
  WS02004411WS02004412 CONDUIT    989.00     0  01:37      1.29    1.40    0.95
  WS02004401WS02004402 CONDUIT   1021.54     0  01:33      1.30    1.23    1.00
  WS02004413WS02003067 CONDUIT    992.24     0  01:34      1.62    0.42    0.73
  WS02004412WS02004413 CONDUIT    991.67     0  01:34      1.28    0.66    0.97
  WS02004410WS02004411 CONDUIT    989.17     0  01:37      1.30    1.35    0.99
  WS02004409WS02004410 CONDUIT   1002.75     0  01:34      1.40    1.30    1.00
  WS02004407WS02004409 CONDUIT   1021.70     0  01:33      1.95    0.36    0.71
  WS02004406WS02004407 CONDUIT   1025.24     0  01:33      1.73    0.46    0.71
  WS02004405WS02004406 CONDUIT   1024.34     0  01:33      1.30    2.02    1.00
  WS02004404WS02004405 CONDUIT   1024.47     0  01:32      1.30   10.04    1.00
  WS02004403WS02004404 CONDUIT   1022.92     0  01:33      1.30    0.74    1.00
  WS02004402WS02004403 CONDUIT   1021.64     0  01:33      1.30    1.47    1.00
  WS02004139WS02001211 CONDUIT    289.68     0  03:15      0.54    0.37    0.59
  WS02004138WS02004139 CONDUIT    285.00     0  04:11      2.39    0.06    0.42
  WS02003067WS02003066 CONDUIT    994.47     0  01:35      1.71    0.32    0.51
  WS02001213WS02003059 CONDUIT    311.00     0  03:15      0.59    0.51    0.84
  WS02001212WS02001213 CONDUIT    305.93     0  03:14      1.19    0.47    0.52
  WS02001211WS02001212 CONDUIT    302.01     0  03:14      0.67    0.23    0.66
  WS02003072WS02003073 CONDUIT   1284.71     0  01:43      1.93    2.77    0.57
  WS02003069WS02003072 CONDUIT   1284.76     0  01:43      1.80    0.62    0.60
  WS02003060WS02003069 CONDUIT   1284.32     0  01:42      2.01    0.50    0.55
  WS02003059WS02003060 CONDUIT    317.44     0  03:15      0.82    0.21    0.75
  HS02004901HS02004770 CONDUIT     47.75     0  01:32      0.11    0.18    0.61
  HS02004876HS02004881 CONDUIT    176.92     0  01:35      1.41    1.88    0.19
  HS02004870HS02004876 CONDUIT    143.30     0  01:35      0.95    0.10    0.22
  HS02004842HS02004848 CONDUIT     21.86     0  01:49      0.09    0.01    0.35
  HS02004837HS02004842 CONDUIT     22.38     0  01:49      0.42    0.01    0.37
  HS02004830HS02004837 CONDUIT     81.97     0  01:35      0.70    0.08    0.18
  HS02004824HS02004830 CONDUIT     82.89     0  01:37      0.63    0.11    0.25
  HS02004817HS02004824 CONDUIT    165.97     0  01:39      0.37    0.07    0.64
  HS02004770HS02004777 CONDUIT    244.64     0  01:32      0.57    0.45    0.62
  HS02004799HS02004480 CONDUIT    605.42     0  01:33      1.21    0.76    0.71
  HS02004792HS02004799 CONDUIT    554.25     0  01:33      1.36    0.34    0.58
  HS02004788HS02004792 CONDUIT    319.85     0  01:34      1.40    0.21    0.33
  HS02004785HS02004788 CONDUIT    244.45     0  01:33      1.02    1.84    0.34
  HS02004777HS02004785 CONDUIT    244.32     0  01:33      0.67    0.30    0.52
  HS02004480HS02004478 CONDUIT    712.97     0  01:34      1.74    3.00    0.59
  HS02004479HS02004480 CONDUIT    107.65     0  01:33      0.45    0.10    0.68
  HS02004862HS02004870 CONDUIT    109.56     0  01:36      0.90    0.12    0.17
  HS02004848HS02004852 CONDUIT     51.63     0  01:36      0.58    0.06    0.13
  HS02004856HS02004862 CONDUIT     76.86     0  01:35      0.67    0.08    0.16
  HS02004852HS02004856 CONDUIT     51.73     0  01:36      0.39    0.06    0.19
  HS02004802HS02004478 CONDUIT    227.55     0  01:37      0.57    0.20    0.58
  HS02004478WS02006287 CONDUIT    934.73     0  01:35      2.37    0.26    0.44
  HS02004817HS02004807 CONDUIT    166.65     0  01:39      0.30    0.10    0.81
  HS02004807HS02004802 CONDUIT    226.44     0  01:36      0.51    0.43    0.64
  YS02001759YS02001757 CONDUIT    899.33     0  01:42      1.15    0.64    1.00
  YS02001762YS02001759 CONDUIT    370.66     0  01:32      0.47    0.43    1.00
  YS02001765YS02001762 CONDUIT    371.14     0  01:32      0.47    0.35    1.00
  YS02001770YS02001767 CONDUIT    371.07     0  01:32      0.50    1.47    1.00
  YS02001774YS02001770 CONDUIT    851.17     0  02:39      1.08    0.54    1.00
  YS02001779YS02001774 CONDUIT    851.17     0  02:39      1.08    0.43    1.00
  YS02001649YS02001757 CONDUIT    887.96     0  01:40      1.13    0.54    1.00
  YS02001767YS02001765 CONDUIT    371.50     0  01:32      0.48    0.47    1.00
  YS02006561YS02001783 CONDUIT   1149.21     0  01:35      2.29    0.60    1.00
  YS02001783YS02001784 CONDUIT   1149.38     0  01:35      2.29    1.58    1.00
  YS02001784YS02001785 CONDUIT   1149.98     0  01:36      2.29    2.68    1.00
  YS02001788YS02001790 CONDUIT   1160.85     0  01:34      2.72    0.86    1.00
  YS02001790YS02001791 CONDUIT   1247.97     0  01:34      3.24    1.36    1.00
  YS02001791YS02001793 CONDUIT   1207.55     0  01:34      4.64    0.52    1.00
  YS02001910YS02001907 CONDUIT    911.45     0  03:01      1.16    0.51    1.00
  YS02001786YS02001788 CONDUIT   1150.06     0  01:35      2.47    2.22    1.00
  YS02001915YS02001910 CONDUIT    911.21     0  03:01      1.16    0.45    1.00
  YS02001918YS02001915 CONDUIT    381.51     0  01:35      0.56    0.21    1.00
  YS02001923YS02001920 CONDUIT    378.44     0  01:35      0.91    0.17    1.00
  YS02001926YS02001923 CONDUIT    355.14     0  03:01      1.01    0.51    1.00
  YS02001929YS02001926 CONDUIT    352.45     0  03:01      1.07    0.17    0.99
  YS02001920YS02001918 CONDUIT    381.32     0  01:35      0.85    0.37    1.00
  YS02001629YS02163301 CONDUIT    280.48     0  01:26      0.36    0.35    1.00
  YS02001619YS02001622 CONDUIT    574.86     0  03:01      0.86    0.85    1.00
  YS02001622YS02001625 CONDUIT    575.11     0  03:01      0.73    0.31    1.00
  YS02001625YS02001629 CONDUIT    257.71     0  01:26      0.39    0.12    1.00
  YS02163301YS02001633 CONDUIT    277.92     0  01:26      0.35    0.26    1.00
  YS02163601YS02164001 CONDUIT    466.55     0  01:28      0.59    0.41    1.00
  YS02164001YS02001641 CONDUIT    468.18     0  01:28      0.60    0.64    1.00
  YS02001641YS02001644 CONDUIT    470.29     0  01:28      0.60    1.52    1.00
  YS02001647YS02001649 CONDUIT    846.70     0  03:17      1.08    0.45    1.00
  YS02006553YS02006556 CONDUIT    731.30     0  04:03      0.93    0.63    1.00
  YS02006556YS02006558 CONDUIT    730.85     0  04:03      0.93    0.58    1.00
  YSB6556YSB1171       CONDUIT     59.52     0  01:34      0.17    0.06    0.88
  YS02001907YS02006553 CONDUIT    730.82     0  04:03      0.81    0.86    1.00
  YS02006558YS02006561 CONDUIT   1149.47     0  01:35      4.07    2.54    1.00
  YS02001633YS02163601 CONDUIT    465.73     0  01:28      0.59    0.49    1.00
  YS02001644YS02001647 CONDUIT    846.70     0  03:17      1.08    0.50    1.00
  YS02001745YS02001748 CONDUIT    667.45     0  03:01      1.86    0.26    1.00
  YS02001748YS02001751 CONDUIT    667.71     0  03:01      1.39    0.34    1.00
  YS02001751YS02001754 CONDUIT    667.96     0  03:01      1.15    0.32    1.00
  YS02001754YS02001757 CONDUIT    668.42     0  03:01      0.85    0.27    1.00
  YS02001882YS02001884 CONDUIT     39.48     0  01:30      0.22    0.05    1.00
  YS02001884YS02001887 CONDUIT     57.85     0  01:29      0.16    0.08    1.00
  YS02001890YS02001895 CONDUIT    599.22     0  01:33      0.76    0.28    1.00
  YS02001895YS02001898 CONDUIT    599.87     0  01:33      0.76    1.04    1.00
  YS02001898YS02001901 CONDUIT    601.27     0  01:33      0.77    0.39    1.00
  YS02001901YS02001904 CONDUIT    600.73     0  01:33      0.76    0.93    1.00
  YS02001904YS02001907 CONDUIT    600.83     0  01:33      0.76    0.21    1.00
  YS02001887YS02001890 CONDUIT    815.77     0  01:57      1.04    1.40    1.00
  YS02001652YS02001649 CONDUIT    639.72     0  03:01      0.84    0.32    1.00
  YS02001655YS02001652 CONDUIT    639.64     0  03:01      1.25    0.31    1.00
  YS02001658YS02001655 CONDUIT    639.31     0  03:01      1.61    0.27    1.00
  YS02001661YS02001658 CONDUIT    639.09     0  03:01      1.99    0.25    1.00
  YS02001664YS02001661 CONDUIT    812.16     0  01:41      1.90    0.25    0.85
  YSB1154YSB6556       CONDUIT     59.45     0  01:33      0.17    0.11    0.84
  YSB1174YSB1171       CONDUIT     50.33     0  01:30      0.14    0.08    0.92
  YSB1171HS02004479    CONDUIT    107.72     0  01:33      0.54    0.07    0.78
  HS02004881HS02006253 CONDUIT    253.51     0  01:30      2.76    0.05    0.56
  YS02001793JiankangQianchi CONDUIT   1179.59     0  01:34      1.55    0.09    1.00
  YS02001757CaochengTiaoxuchi CONDUIT   2182.39     0  01:41      3.80    0.96    1.00
  WSF200WS02003060     CONDUIT   1003.32     0  01:35      2.23    0.22    0.44
  1                    CONDUIT   1286.54     0  01:42      3.56    0.45    0.47
  CC-Pump-1            PUMP         0.00     0  00:00              0.00
  CC-Pump-2            PUMP         0.00     0  00:00              0.00
  JK-Pump-1            PUMP       300.00     0  01:25              1.00
  JK-Pump-2            PUMP       683.00     0  01:27              1.00
  XR-Pump-1            PUMP        95.00     0  00:00              1.00
  XR-Pump-2            PUMP        95.00     0  00:25              1.00
  XR-Pump-3            PUMP        95.00     0  01:17              1.00
  XR-Pump-4            PUMP         0.00     0  00:00              0.00
  
  
  ***************************
  Flow Classification Summary
  ***************************
  
  -------------------------------------------------------------------------------------
                      Adjusted    ---------- Fraction of Time in Flow Class ---------- 
                       /Actual         Up    Down  Sub   Sup   Up    Down  Norm  Inlet 
  Conduit               Length    Dry  Dry   Dry   Crit  Crit  Crit  Crit  Ltd   Ctrl  
  -------------------------------------------------------------------------------------
  WS02003066WSF200        1.00   0.12  0.00  0.00  0.00  0.88  0.00  0.00  0.56  0.00
  WS02006287WS02006284    1.00   0.05  0.02  0.00  0.42  0.51  0.00  0.00  0.62  0.00
  WS02006284WS02006280    1.00   0.06  0.00  0.00  0.00  0.00  0.00  0.93  0.00  0.00
  WS02006280WS02006229    1.00   0.07  0.00  0.00  0.09  0.09  0.00  0.75  0.02  0.00
  WS02006229WS02006228    1.00   0.00  0.00  0.00  1.00  0.00  0.00  0.00  0.00  0.00
  WS02006256WS02006235    1.00   0.09  0.00  0.00  0.91  0.00  0.00  0.00  0.00  0.00
  WS02006253WS02006251    1.00   0.02  0.03  0.00  0.92  0.00  0.02  0.00  0.00  0.00
  WS02006252WS02006251    1.00   0.12  0.14  0.00  0.18  0.00  0.56  0.00  0.00  0.00
  WS02006251WS02006249    1.00   0.00  0.00  0.00  1.00  0.00  0.00  0.00  0.65  0.00
  WS02006249WS02006248    1.00   0.00  0.01  0.00  0.83  0.00  0.16  0.00  0.00  0.00
  WS02006248WS02006247    1.00   0.01  0.00  0.00  0.97  0.00  0.00  0.03  0.14  0.00
  WS02006247WS02006245    1.00   0.01  0.00  0.00  0.94  0.00  0.00  0.05  0.00  0.00
  WS02006245WS02006243    1.00   0.01  0.00  0.00  0.91  0.00  0.00  0.07  0.01  0.00
  WS02006243WS02006242    1.00   0.02  0.00  0.00  0.92  0.00  0.00  0.07  0.08  0.00
  WS02006242WS02006240    1.00   0.02  0.05  0.00  0.91  0.00  0.01  0.00  0.00  0.00
  WS02006240WS02006239    1.00   0.08  0.00  0.00  0.90  0.00  0.00  0.02  0.00  0.00
  WS02006239WS02006238    1.00   0.08  0.00  0.00  0.91  0.00  0.00  0.01  0.00  0.00
  WS02006238WS02006235    1.00   0.08  0.01  0.00  0.91  0.00  0.00  0.00  0.00  0.00
  WS02006235WS02006234    1.00   0.09  0.00  0.00  0.91  0.00  0.00  0.00  0.00  0.00
  WS02006234WS02006232    1.00   0.08  0.01  0.00  0.91  0.00  0.00  0.00  0.00  0.00
  WS02006232WS02006231    1.00   0.08  0.00  0.00  0.92  0.00  0.00  0.00  0.00  0.00
  WS02006231WS02006230    1.00   0.08  0.00  0.00  0.47  0.00  0.45  0.00  0.00  0.00
  WS02006230WS02006229    1.00   0.00  0.00  0.00  0.98  0.00  0.00  0.02  0.00  0.00
  WS02006228WS02006109    1.00   0.00  0.00  0.00  1.00  0.00  0.00  0.00  0.01  0.00
  WS02006116WS02004401    1.00   0.05  0.00  0.00  0.95  0.00  0.00  0.00  0.00  0.00
  WS02006115WS02006116    1.00   0.05  0.00  0.00  0.91  0.00  0.00  0.04  0.00  0.00
  WS02006113WS02006111    1.00   0.03  0.00  0.00  0.25  0.72  0.00  0.00  0.29  0.00
  WS02006112WS02006115    1.00   0.03  0.02  0.00  0.95  0.00  0.00  0.00  0.00  0.00
  WS02006111WS02006112    1.00   0.03  0.00  0.00  0.96  0.00  0.00  0.00  0.69  0.00
  WS02006110WS02006113    1.00   0.01  0.02  0.00  0.97  0.00  0.00  0.00  0.00  0.00
  WS02006109WS02006110    1.00   0.00  0.01  0.00  0.99  0.00  0.01  0.00  0.00  0.00
  WS02004411WS02004412    1.00   0.10  0.00  0.00  0.90  0.00  0.00  0.00  0.00  0.00
  WS02004401WS02004402    1.00   0.05  0.00  0.00  0.95  0.00  0.00  0.00  0.02  0.00
  WS02004413WS02003067    1.00   0.11  0.01  0.00  0.00  0.00  0.88  0.00  0.00  0.00
  WS02004412WS02004413    1.00   0.10  0.00  0.00  0.89  0.01  0.00  0.00  0.00  0.00
  WS02004410WS02004411    1.00   0.10  0.00  0.00  0.90  0.00  0.00  0.00  0.00  0.00
  WS02004409WS02004410    1.00   0.10  0.00  0.00  0.90  0.00  0.00  0.00  0.00  0.00
  WS02004407WS02004409    1.00   0.10  0.00  0.00  0.88  0.02  0.00  0.00  0.80  0.00
  WS02004406WS02004407    1.00   0.00  0.10  0.00  0.90  0.00  0.00  0.00  0.00  0.00
  WS02004405WS02004406    1.00   0.00  0.00  0.00  1.00  0.00  0.00  0.00  0.04  0.00
  WS02004404WS02004405    1.00   0.00  0.00  0.00  1.00  0.00  0.00  0.00  0.00  0.00
  WS02004403WS02004404    1.00   0.00  0.05  0.00  0.95  0.00  0.00  0.00  0.04  0.00
  WS02004402WS02004403    1.00   0.05  0.00  0.00  0.95  0.00  0.00  0.00  0.00  0.00
  WS02004139WS02001211    1.00   0.00  0.00  0.00  1.00  0.00  0.00  0.00  0.00  0.00
  WS02004138WS02004139    1.00   0.00  0.00  0.00  0.99  0.00  0.00  0.00  1.00  0.00
  WS02003067WS02003066    1.00   0.12  0.00  0.00  0.88  0.00  0.00  0.00  0.00  0.00
  WS02001213WS02003059    1.00   0.00  0.00  0.00  1.00  0.00  0.00  0.00  0.00  0.00
  WS02001212WS02001213    1.00   0.00  0.00  0.00  0.79  0.00  0.21  0.00  0.00  0.00
  WS02001211WS02001212    1.00   0.00  0.00  0.00  1.00  0.00  0.00  0.00  0.00  0.00
  WS02003072WS02003073    1.00   0.00  0.00  0.00  0.00  0.00  0.00  1.00  0.00  0.00
  WS02003069WS02003072    1.00   0.00  0.00  0.00  1.00  0.00  0.00  0.00  0.17  0.00
  WS02003060WS02003069    1.00   0.00  0.00  0.00  0.99  0.01  0.00  0.00  0.12  0.00
  WS02003059WS02003060    1.00   0.00  0.00  0.00  1.00  0.00  0.00  0.00  0.02  0.00
  HS02004901HS02004770    1.00   0.06  0.00  0.00  0.94  0.00  0.00  0.00  0.00  0.00
  HS02004876HS02004881    1.00   0.01  0.00  0.00  0.65  0.35  0.00  0.00  0.00  0.00
  HS02004870HS02004876    1.00   0.00  0.00  0.00  0.99  0.00  0.00  0.00  0.95  0.00
  HS02004842HS02004848    1.00   0.00  0.06  0.00  0.94  0.00  0.00  0.00  0.54  0.00
  HS02004837HS02004842    1.00   0.00  0.00  0.00  1.00  0.00  0.00  0.00  0.11  0.00
  HS02004830HS02004837    1.00   0.00  0.00  0.00  1.00  0.00  0.00  0.00  0.99  0.00
  HS02004824HS02004830    1.00   0.00  0.00  0.00  1.00  0.00  0.00  0.00  0.03  0.00
  HS02004817HS02004824    1.00   0.00  0.00  0.00  1.00  0.00  0.00  0.00  0.87  0.00
  HS02004770HS02004777    1.00   0.00  0.06  0.00  0.94  0.00  0.00  0.00  0.01  0.00
  HS02004799HS02004480    1.00   0.00  0.02  0.00  0.93  0.00  0.05  0.00  0.00  0.00
  HS02004792HS02004799    1.00   0.00  0.00  0.00  0.99  0.01  0.00  0.00  0.98  0.00
  HS02004788HS02004792    1.00   0.00  0.00  0.00  1.00  0.00  0.00  0.00  0.98  0.00
  HS02004785HS02004788    1.00   0.00  0.00  0.00  1.00  0.00  0.00  0.00  0.00  0.00
  HS02004777HS02004785    1.00   0.00  0.00  0.00  1.00  0.00  0.00  0.00  0.10  0.00
  HS02004480HS02004478    1.00   0.06  0.00  0.00  0.47  0.00  0.00  0.47  0.00  0.00
  HS02004479HS02004480    1.00   0.02  0.00  0.00  0.98  0.00  0.00  0.00  0.10  0.00
  HS02004862HS02004870    1.00   0.00  0.00  0.00  1.00  0.00  0.00  0.00  0.02  0.00
  HS02004848HS02004852    1.00   0.06  0.00  0.00  0.94  0.00  0.00  0.00  0.83  0.00
  HS02004856HS02004862    1.00   0.00  0.07  0.00  0.93  0.00  0.00  0.00  0.85  0.00
  HS02004852HS02004856    1.00   0.06  0.00  0.00  0.94  0.00  0.00  0.00  0.69  0.00
  HS02004802HS02004478    1.00   0.06  0.00  0.00  0.94  0.00  0.00  0.00  0.01  0.00
  HS02004478WS02006287    1.00   0.07  0.00  0.00  0.53  0.41  0.00  0.00  0.59  0.00
  HS02004817HS02004807    1.00   0.00  0.06  0.00  0.94  0.00  0.00  0.00  0.01  0.00
  HS02004807HS02004802    1.00   0.06  0.00  0.00  0.93  0.00  0.00  0.01  0.00  0.00
  YS02001759YS02001757    1.00   0.00  0.00  0.00  1.00  0.00  0.00  0.00  0.14  0.00
  YS02001762YS02001759    1.00   0.00  0.00  0.00  1.00  0.00  0.00  0.00  0.01  0.00
  YS02001765YS02001762    1.00   0.00  0.00  0.00  1.00  0.00  0.00  0.00  0.13  0.00
  YS02001770YS02001767    1.00   0.00  0.00  0.00  1.00  0.00  0.00  0.00  0.00  0.00
  YS02001774YS02001770    1.00   0.00  0.06  0.00  0.94  0.00  0.00  0.00  0.01  0.00
  YS02001779YS02001774    1.00   0.00  0.00  0.00  1.00  0.00  0.00  0.00  0.15  0.00
  YS02001649YS02001757    1.00   0.00  0.00  0.00  1.00  0.00  0.00  0.00  0.14  0.00
  YS02001767YS02001765    1.00   0.00  0.00  0.00  1.00  0.00  0.00  0.00  0.00  0.00
  YS02006561YS02001783    1.00   0.07  0.00  0.00  0.50  0.43  0.00  0.00  0.35  0.00
  YS02001783YS02001784    1.00   0.00  0.07  0.00  0.92  0.00  0.00  0.00  0.00  0.00
  YS02001784YS02001785    1.00   0.00  0.00  0.00  1.00  0.00  0.00  0.00  0.14  0.00
  YS02001788YS02001790    1.00   0.00  0.00  0.00  0.52  0.48  0.00  0.00  0.34  0.00
  YS02001790YS02001791    1.00   0.00  0.00  0.00  0.45  0.55  0.00  0.00  0.48  0.00
  YS02001791YS02001793    1.00   0.00  0.00  0.00  0.63  0.36  0.00  0.00  0.26  0.00
  YS02001910YS02001907    1.00   0.00  0.00  0.00  0.99  0.00  0.00  0.01  0.11  0.00
  YS02001786YS02001788    1.00   0.00  0.00  0.00  0.54  0.46  0.00  0.00  0.00  0.00
  YS02001915YS02001910    1.00   0.00  0.00  0.00  0.99  0.01  0.00  0.00  0.12  0.00
  YS02001918YS02001915    1.00   0.00  0.00  0.00  0.99  0.01  0.00  0.00  0.44  0.00
  YS02001923YS02001920    1.00   0.00  0.00  0.00  1.00  0.00  0.00  0.00  0.66  0.00
  YS02001926YS02001923    1.00   0.00  0.03  0.00  0.44  0.00  0.52  0.00  0.00  0.00
  YS02001929YS02001926    1.00   0.00  0.06  0.00  0.94  0.00  0.00  0.00  0.56  0.00
  YS02001920YS02001918    1.00   0.00  0.00  0.00  1.00  0.00  0.00  0.00  0.00  0.00
  YS02001629YS02163301    1.00   0.06  0.00  0.00  0.93  0.00  0.00  0.00  0.00  0.00
  YS02001619YS02001622    1.00   0.06  0.00  0.00  0.94  0.00  0.00  0.00  0.00  0.00
  YS02001622YS02001625    1.00   0.06  0.00  0.00  0.94  0.00  0.00  0.00  0.02  0.00
  YS02001625YS02001629    1.00   0.06  0.01  0.00  0.91  0.00  0.02  0.00  0.00  0.00
  YS02163301YS02001633    1.00   0.00  0.06  0.00  0.94  0.00  0.00  0.00  0.00  0.00
  YS02163601YS02164001    1.00   0.00  0.04  0.00  0.96  0.00  0.00  0.00  0.00  0.00
  YS02164001YS02001641    1.00   0.00  0.03  0.00  0.96  0.00  0.00  0.00  0.05  0.00
  YS02001641YS02001644    1.00   0.00  0.00  0.00  1.00  0.00  0.00  0.00  0.00  0.00
  YS02001647YS02001649    1.00   0.00  0.07  0.00  0.93  0.00  0.00  0.00  0.01  0.00
  YS02006553YS02006556    1.00   0.01  0.00  0.00  0.99  0.00  0.00  0.00  0.03  0.00
  YS02006556YS02006558    1.00   0.00  0.00  0.00  1.00  0.00  0.00  0.00  0.00  0.00
  YSB6556YSB1171          1.00   0.02  0.04  0.00  0.94  0.00  0.00  0.00  0.00  0.00
  YS02001907YS02006553    1.00   0.00  0.01  0.00  0.99  0.00  0.00  0.00  0.00  0.00
  YS02006558YS02006561    1.00   0.07  0.00  0.00  0.44  0.49  0.00  0.00  0.40  0.00
  YS02001633YS02163601    1.00   0.00  0.00  0.00  1.00  0.00  0.00  0.00  0.14  0.00
  YS02001644YS02001647    1.00   0.00  0.07  0.00  0.93  0.00  0.00  0.00  0.00  0.00
  YS02001745YS02001748    1.00   0.00  0.00  0.00  0.89  0.00  0.00  0.11  0.00  0.00
  YS02001748YS02001751    1.00   0.00  0.00  0.00  0.97  0.03  0.00  0.00  0.13  0.00
  YS02001751YS02001754    1.00   0.00  0.00  0.00  0.92  0.00  0.00  0.08  0.01  0.00
  YS02001754YS02001757    1.00   0.00  0.00  0.00  1.00  0.00  0.00  0.00  0.15  0.00
  YS02001882YS02001884    1.00   0.06  0.00  0.00  0.93  0.00  0.00  0.00  0.00  0.00
  YS02001884YS02001887    1.00   0.03  0.03  0.00  0.95  0.00  0.00  0.00  0.00  0.00
  YS02001890YS02001895    1.00   0.00  0.07  0.00  0.93  0.00  0.00  0.00  0.00  0.00
  YS02001895YS02001898    1.00   0.07  0.00  0.00  0.92  0.00  0.01  0.00  0.00  0.00
  YS02001898YS02001901    1.00   0.07  0.00  0.00  0.93  0.00  0.00  0.00  0.00  0.00
  YS02001901YS02001904    1.00   0.07  0.00  0.00  0.93  0.00  0.00  0.00  0.00  0.00
  YS02001904YS02001907    1.00   0.00  0.07  0.00  0.93  0.00  0.00  0.00  0.00  0.00
  YS02001887YS02001890    1.00   0.00  0.00  0.00  0.99  0.00  0.01  0.00  0.00  0.00
  YS02001652YS02001649    1.00   0.00  0.00  0.00  1.00  0.00  0.00  0.00  0.14  0.00
  YS02001655YS02001652    1.00   0.00  0.00  0.00  0.92  0.00  0.00  0.08  0.01  0.00
  YS02001658YS02001655    1.00   0.00  0.06  0.00  0.90  0.03  0.00  0.00  0.01  0.00
  YS02001661YS02001658    1.00   0.06  0.00  0.00  0.89  0.05  0.00  0.00  0.00  0.00
  YS02001664YS02001661    1.00   0.06  0.00  0.00  0.89  0.05  0.00  0.00  0.06  0.00
  YSB1154YSB6556          1.00   0.06  0.00  0.00  0.94  0.00  0.00  0.00  0.01  0.00
  YSB1174YSB1171          1.00   0.02  0.02  0.00  0.96  0.00  0.00  0.00  0.00  0.00
  YSB1171HS02004479       1.00   0.02  0.00  0.00  0.97  0.00  0.00  0.01  0.09  0.00
  HS02004881HS02006253    1.00   0.03  0.00  0.00  0.31  0.02  0.00  0.64  0.23  0.00
  YS02001793JiankangQianchi    1.00   0.00  0.00  0.00  1.00  0.00  0.00  0.00  0.34  0.00
  YS02001757CaochengTiaoxuchi    1.00   0.00  0.09  0.00  0.86  0.05  0.00  0.00  0.00  0.00
  WSF200WS02003060        1.00   0.00  0.12  0.00  0.70  0.17  0.00  0.00  0.49  0.00
  1                       1.00   0.00  0.00  0.00  0.00  1.00  0.00  0.00  0.52  0.00
  
  
  *************************
  Conduit Surcharge Summary
  *************************
  
  ----------------------------------------------------------------------------
                                                           Hours        Hours 
                         --------- Hours Full --------   Above Full   Capacity
  Conduit                Both Ends  Upstream  Dnstream   Normal Flow   Limited
  ----------------------------------------------------------------------------
  WS02006280WS02006229        0.01      0.01      0.01      0.01         0.01
  WS02006229WS02006228        2.21      2.24      2.21      2.80         2.21
  WS02006256WS02006235        6.20      6.23      6.60      5.79         0.01
  WS02006253WS02006251        0.97      0.97      1.03      0.01         0.01
  WS02006252WS02006251        0.37      0.37      0.63      0.01         0.01
  WS02006251WS02006249        0.98      0.98      1.10      0.01         0.01
  WS02006249WS02006248        1.07      1.08      1.10      0.01         0.01
  WS02006248WS02006247        1.12      1.13      1.38      0.01         0.01
  WS02006247WS02006245        1.43      1.43      1.45      0.19         0.26
  WS02006245WS02006243        1.53      1.53      1.74      0.01         0.01
  WS02006243WS02006242        1.75      1.75      1.84      0.01         0.01
  WS02006242WS02006240        1.83      1.83      1.86      0.01         0.01
  WS02006240WS02006239        1.84      1.84      1.88      0.01         0.01
[...]
  YS02001649YS02001757        6.57      6.57      6.59      0.01         0.01
  YS02001767YS02001765        6.56      6.56      6.56      0.01         0.01
  YS02006561YS02001783        2.43      2.43      2.65      0.01         0.01
  YS02001783YS02001784        2.62      2.65      2.62      2.89         2.62
  YS02001784YS02001785        2.52      2.62      2.52      3.62         2.52
  YS02001788YS02001790        2.38      2.38      2.48      0.01         0.01
  YS02001790YS02001791        2.48      2.48      2.48      2.60         2.48
  YS02001791YS02001793        2.48      2.48      2.85      0.01         0.01
  YS02001910YS02001907        2.69      2.69      3.15      0.01         0.01
  YS02001786YS02001788        2.38      2.52      2.38      3.25         2.38
  YS02001915YS02001910        2.55      2.55      2.69      0.01         0.01
  YS02001918YS02001915        2.41      2.41      2.55      0.01         0.01
  YS02001923YS02001920        2.25      2.25      2.44      0.01         0.01
  YS02001926YS02001923        0.01      0.01      0.01      0.01         0.01
  YS02001929YS02001926        0.01      0.01      0.01      0.01         0.01
  YS02001920YS02001918        2.41      2.41      2.44      0.01         0.01
  YS02001629YS02163301        6.55      6.55      6.56      0.01         0.01
  YS02001619YS02001622        6.54      6.54      6.54      0.01         0.03
  YS02001622YS02001625        6.54      6.54      6.55      0.01         0.01
  YS02001625YS02001629        6.54      6.54      6.55      0.01         0.01
  YS02163301YS02001633        6.56      6.56      6.57      0.01         0.01
  YS02163601YS02164001        6.57      6.57      6.57      0.01         0.01
  YS02164001YS02001641        6.57      6.57      6.57      0.01         0.02
  YS02001641YS02001644        6.57      6.57      6.57      3.18         3.28
  YS02001647YS02001649        6.55      6.55      6.57      0.01         0.01
  YS02006553YS02006556        2.85      2.85      3.21      0.01         0.01
  YS02006556YS02006558        2.94      2.94      3.27      0.01         0.01
  YSB6556YSB1171              0.01      0.01      0.58      0.01         0.01
  YS02001907YS02006553        3.65      3.65      3.87      0.01         0.01
  YS02006558YS02006561        2.51      2.82      2.51      3.49         2.51
  YS02001633YS02163601        6.56      6.56      6.57      0.01         0.01
  YS02001644YS02001647        6.55      6.55      6.57      0.01         0.01
  YS02001745YS02001748        1.11      1.11      6.52      0.01         0.01
  YS02001748YS02001751        6.52      6.52      6.53      0.01         0.01
  YS02001751YS02001754        6.53      6.53      6.54      0.01         0.01
  YS02001754YS02001757        6.55      6.55      6.59      0.01         0.01
  YS02001882YS02001884        2.56      2.56      2.58      0.01         0.01
  YS02001884YS02001887        2.61      2.61      2.63      0.01         0.01
  YS02001890YS02001895        2.54      2.54      2.70      0.01         0.01
  YS02001895YS02001898        2.53      2.53      2.54      0.02         0.01
  YS02001898YS02001901        2.55      2.55      2.60      0.01         0.01
  YS02001901YS02001904        2.59      2.59      2.60      0.01         0.01
  YS02001904YS02001907        2.59      2.59      3.22      0.01         0.01
  YS02001887YS02001890        2.65      2.65      2.67      1.65         0.01
  YS02001652YS02001649        6.54      6.54      6.57      0.01         0.01
  YS02001655YS02001652        6.53      6.53      6.54      0.01         0.01
  YS02001658YS02001655        6.52      6.52      6.53      0.01         0.01
  YS02001661YS02001658        1.41      1.41      6.52      0.01         0.01
  YS02001664YS02001661        0.01      0.01      2.28      0.01         0.01
  YSB1174YSB1171              0.01      0.01      0.32      0.01         0.01
  HS02004881HS02006253        0.01      0.01      0.59      0.01         0.01
  YS02001793JiankangQianchi        2.60      2.60      7.98      0.01         0.01
  YS02001757CaochengTiaoxuchi        6.15      6.15      6.59      0.01         0.01
  
  
  ***************
  Pumping Summary
  ***************
  
  ---------------------------------------------------------------------------------------------------------
                                                  Min       Avg       Max     Total     Power    % Time Off
                        Percent   Number of      Flow      Flow      Flow    Volume     Usage    Pump Curve
  Pump                 Utilized   Start-Ups       LPS       LPS       LPS  10^6 ltr     Kw-hr    Low   High
  ---------------------------------------------------------------------------------------------------------
  CC-Pump-1                0.00           0      0.00      0.00      0.00     0.000      0.00    0.0    0.0
  CC-Pump-2                0.00           0      0.00      0.00      0.00     0.000      0.00    0.0    0.0
  JK-Pump-1               72.22           6      0.00    300.00    300.00     6.240     59.47    0.0    0.0
  JK-Pump-2               39.18          23      0.00    683.00    683.00     7.707     61.88    0.0  100.0
  XR-Pump-1              100.00           1      0.00     95.00     95.00     2.736     14.45    0.0    0.0
  XR-Pump-2               94.81           1      0.00     95.00     95.00     2.594     13.03    0.0    0.0
  XR-Pump-3               83.79           1      0.00     95.00     95.00     2.293     10.64    0.0    0.0
  XR-Pump-4                0.00           0      0.00      0.00      0.00     0.000      0.00    0.0    0.0
  
  
  ***************************
  Link Pollutant Load Summary
  ***************************
  
  ------------------------------------------------------------------------------------------
                                 COD            SS            TN            TP         NH4-N
  Link                            kg            kg            kg            kg            kg
  ------------------------------------------------------------------------------------------
  WS02003066WSF200          1196.059      2307.157        29.506         2.481        15.202
  WS02006287WS02006284       663.966      1310.585        17.368         1.543         9.090
  WS02006284WS02006280       664.447      1311.341        17.416         1.549         9.120
  WS02006280WS02006229       664.529      1311.594        17.415         1.549         9.119
  WS02006229WS02006228      1174.024      2259.811        28.961         2.424        14.912
  WS02006256WS02006235       454.020       839.059        10.378         0.797         5.238
  WS02006253WS02006251       119.794       243.753         2.506         0.180         1.218
  WS02006252WS02006251         0.744         1.363         0.034         0.004         0.020
  WS02006251WS02006249       121.678       247.520         2.579         0.188         1.260
  WS02006249WS02006248        86.287       171.796         1.912         0.141         0.941
  WS02006248WS02006247        86.770       170.966         1.966         0.148         0.975
  WS02006247WS02006245        86.721       169.890         1.989         0.151         0.990
  WS02006245WS02006243        88.161       171.838         2.038         0.155         1.017
  WS02006243WS02006242        91.058       176.055         2.122         0.162         1.062
  WS02006242WS02006240        95.253       182.327         2.247         0.173         1.128
  WS02006240WS02006239       100.031       190.080         2.379         0.184         1.198
  WS02006239WS02006238       105.366       199.224         2.513         0.195         1.268
  WS02006238WS02006235       108.241       204.030         2.583         0.201         1.303
  WS02006235WS02006234       511.649       951.853        11.639         0.885         5.846
  WS02006234WS02006232       513.779       956.150        11.692         0.890         5.874
  WS02006232WS02006231       516.662       961.929        11.765         0.897         5.913
  WS02006231WS02006230       519.962       968.568        11.847         0.904         5.955
  WS02006230WS02006229       524.231       977.388        11.940         0.912         6.003
  WS02006228WS02006109      1173.447      2259.078        28.920         2.419        14.888
  WS02006116WS02004401      1206.777      2323.962        30.029         2.536        15.506
  WS02006115WS02006116      1207.168      2324.328        30.068         2.541        15.530
  WS02006113WS02006111      1180.925      2271.666        29.654         2.512        15.348
  WS02006112WS02006115      1208.256      2326.178        30.122         2.547        15.562
  WS02006111WS02006112      1180.453      2270.743        29.637         2.510        15.339
  WS02006110WS02006113      1181.018      2271.621        29.668         2.514        15.357
  WS02006109WS02006110      1181.810      2272.711        29.727         2.520        15.392
  WS02004411WS02004412      1199.421      2312.819        29.662         2.497        15.293
  WS02004401WS02004402      1205.660      2322.138        29.970         2.529        15.471
  WS02004413WS02003067      1196.759      2308.257        29.540         2.484        15.221
  WS02004412WS02004413      1198.579      2311.555        29.614         2.492        15.264
  WS02004410WS02004411      1200.036      2313.697        29.699         2.501        15.315
  WS02004409WS02004410      1200.651      2314.621        29.734         2.505        15.335
  WS02004407WS02004409      1201.091      2315.166        29.765         2.509        15.354
  WS02004406WS02004407      1201.077      2314.903        29.775         2.510        15.360
  WS02004405WS02004406      1203.437      2318.840        29.906         2.525        15.438
  WS02004404WS02004405      1204.110      2319.690        29.935         2.527        15.454
  WS02004403WS02004404      1203.640      2318.925        29.860         2.517        15.406
  WS02004402WS02004403      1204.723      2320.727        29.914         2.523        15.437
  WS02004139WS02001211       959.980      1668.470        64.125         7.572        38.801
  WS02004138WS02004139       963.761      1675.074        64.351         7.598        38.936
  WS02003067WS02003066      1196.163      2307.326        29.512         2.481        15.205
  WS02001213WS02003059       999.157      1729.962        68.179         8.083        41.349
  WS02001212WS02001213      1004.496      1739.215        68.521         8.123        41.555
  WS02001211WS02001212      1006.623      1742.648        68.714         8.147        41.675
  WS02003072WS02003073      2300.765      4205.448       108.050        11.864        63.040
  WS02003069WS02003072      2305.283      4212.748       108.459        11.915        63.295
  WS02003060WS02003069      2306.317      4214.544       108.495        11.918        63.315
  WS02003059WS02003060       997.156      1726.450        68.064         8.070        41.281
  HS02004901HS02004770        31.238        62.179         0.612         0.047         0.291
  HS02004876HS02004881       101.443       206.374         2.157         0.154         1.048
  HS02004870HS02004876        77.917       158.640         1.702         0.122         0.828
  HS02004842HS02004848        14.998        29.647         0.314         0.022         0.147
  HS02004837HS02004842        19.712        37.158         0.788         0.082         0.444
  HS02004830HS02004837       102.767       188.593         5.380         0.612         3.198
  HS02004824HS02004830       103.643       190.076         5.457         0.621         3.246
  HS02004817HS02004824       159.448       305.387         6.591         0.694         3.797
  HS02004770HS02004777       119.647       241.814         2.495         0.175         1.169
  HS02004799HS02004480       375.130       742.934         8.607         0.706         4.288
  HS02004792HS02004799       343.395       677.437         8.032         0.670         4.017
  HS02004788HS02004792       180.286       357.371         4.713         0.405         2.415
  HS02004785HS02004788       121.049       244.053         2.639         0.193         1.260
  HS02004777HS02004785       120.345       242.937         2.574         0.185         1.219
  HS02004480HS02004478       465.123       923.170        10.263         0.830         5.087
  HS02004479HS02004480        93.774       186.479         1.955         0.161         0.984
  HS02004862HS02004870        60.234       121.319         1.343         0.100         0.654
  HS02004848HS02004852        26.761        53.672         0.548         0.038         0.256
  HS02004856HS02004862        41.869        85.060         0.850         0.058         0.403
  HS02004852HS02004856        26.785        53.716         0.548         0.038         0.257
  HS02004802HS02004478       199.987       389.269         7.176         0.721         4.045
  HS02004478WS02006287       664.058      1310.644        17.385         1.545         9.101
  HS02004817HS02004807       158.327       303.722         6.457         0.677         3.712
  HS02004807HS02004802       199.961       389.185         7.202         0.724         4.062
  YS02001759YS02001757       518.868      1011.658         9.994         0.711         4.871
  YS02001762YS02001759       387.233       744.674         7.744         0.553         3.794
  YS02001765YS02001762       388.882       749.345         7.786         0.557         3.816
  YS02001770YS02001767       398.162       771.303         7.886         0.559         3.853
  YS02001774YS02001770       882.386      1741.457        17.417         1.191         8.467
  YS02001779YS02001774       882.247      1741.342        17.485         1.201         8.513
  YS02001649YS02001757       866.748      1676.685        17.384         1.189         8.431
  YS02001767YS02001765       392.151       757.294         7.851         0.562         3.849
  YS02006561YS02001783      1619.489      3105.559        33.544         2.459        16.550
  YS02001783YS02001784      1619.466      3105.561        33.541         2.459        16.548
  YS02001784YS02001785      1627.079      3117.829        34.271         2.550        17.004
  YS02001788YS02001790      1627.822      3119.110        34.346         2.560        17.051
  YS02001790YS02001791      1628.962      3121.060        34.448         2.573        17.115
  YS02001791YS02001793      1628.825      3120.753        34.445         2.572        17.113
  YS02001910YS02001907       953.009      1850.673        20.436         1.462        10.173
  YS02001786YS02001788      1627.382      3118.395        34.301         2.554        17.023
  YS02001915YS02001910       953.010      1850.647        20.394         1.456        10.145
  YS02001918YS02001915       474.521       889.967        10.633         0.867         5.446
  YS02001923YS02001920       448.316       845.000         8.551         0.614         4.162
  YS02001926YS02001923       445.477       839.868         8.441         0.603         4.098
  YS02001929YS02001926       443.104       835.682         8.341         0.592         4.041
  YS02001920YS02001918       469.868       880.194        10.531         0.860         5.395
  YS02001629YS02163301       210.953       398.854         4.155         0.296         1.987
  YS02001619YS02001622       451.565       869.291         9.098         0.616         4.298
  YS02001622YS02001625       451.272       868.925         9.086         0.615         4.292
  YS02001625YS02001629       205.329       387.846         4.055         0.288         1.937
  YS02163301YS02001633       216.718       410.157         4.255         0.304         2.037
  YS02163601YS02164001       717.748      1352.408        13.945         1.025         6.739
  YS02164001YS02001641       718.465      1353.710        13.945         1.024         6.737
  YS02001641YS02001644       720.927      1358.169        13.981         1.027         6.754
  YS02001647YS02001649       981.408      1878.181        19.977         1.393         9.619
  YS02006553YS02006556       828.085      1550.602        17.915         1.347         8.965
  YS02006556YS02006558       828.763      1551.890        17.886         1.342         8.943
  YSB6556YSB1171              54.548       108.522         1.086         0.087         0.541
  YS02001907YS02006553       827.743      1549.925        17.958         1.354         8.995
  YS02006558YS02006561      1619.399      3105.356        33.543         2.459        16.549
  YS02001633YS02163601       718.232      1353.186        13.919         1.020         6.719
  YS02001644YS02001647       988.099      1891.831        20.077         1.400         9.667
  YS02001745YS02001748       598.652      1179.758        11.880         0.762         5.732
  YS02001748YS02001751       598.234      1179.093        11.892         0.765         5.742
  YS02001751YS02001754       597.637      1178.150        11.883         0.765         5.739
  YS02001754YS02001757       598.880      1180.149        12.056         0.788         5.850
  YS02001882YS02001884         4.353         7.882         0.081         0.006         0.039
  YS02001884YS02001887         8.543        15.708         0.157         0.012         0.077
  YS02001890YS02001895       828.318      1600.330        15.751         1.200         7.714
  YS02001895YS02001898       828.224      1600.279        15.745         1.200         7.710
  YS02001898YS02001901       828.070      1599.959        15.742         1.200         7.709
  YS02001901YS02001904       828.134      1600.117        15.761         1.202         7.721
  YS02001904YS02001907       828.524      1600.684        15.821         1.210         7.759
  YS02001887YS02001890      1076.458      2095.717        20.326         1.551         9.949
  YS02001652YS02001649       555.687      1072.637        11.127         0.812         5.253
  YS02001655YS02001652       556.445      1073.841        11.149         0.813         5.263
  YS02001658YS02001655       556.246      1073.514        11.070         0.802         5.210
  YS02001661YS02001658       556.879      1074.496        11.085         0.803         5.216
  YS02001664YS02001661       558.212      1076.283        11.123         0.805         5.234
  YSB1154YSB6556              54.072       107.780         1.038         0.081         0.511
  YSB1174YSB1171              37.706        75.537         0.747         0.059         0.369
  YSB1171HS02004479           93.616       186.170         1.960         0.162         0.989
  HS02004881HS02006253       113.832       232.104         2.396         0.171         1.164
  YS02001793JiankangQianchi      1631.882      3125.816        34.525         2.579        17.154
  YS02001757CaochengTiaoxuchi       596.158      1182.863        10.962         0.759         5.255
  WSF200WS02003060          1195.695      2306.628        29.488         2.479        15.191
  1                         2309.976      4219.758       109.137        12.004        63.730
  CC-Pump-1                    0.000         0.000         0.000         0.000         0.000
  CC-Pump-2                    0.000         0.000         0.000         0.000         0.000
  JK-Pump-1                  624.529      1166.475        13.990         1.068         7.036
  JK-Pump-2                  994.062      1938.110        20.063         1.467         9.859
  XR-Pump-1                  340.612       589.422        23.287         2.762        14.126
  XR-Pump-2                  333.571       578.157        22.611         2.677        13.703
  XR-Pump-3                  291.422       510.719        18.565         2.172        11.175
  XR-Pump-4                    0.000         0.000         0.000         0.000         0.000
  

  Analysis begun on:  Sat Jul 10 17:20:19 2021
  Analysis ended on:  Sat Jul 10 17:20:21 2021
  Total elapsed time: 00:00:02