
  EPA STORM WATER MANAGEMENT MODEL - VERSION 5.1 (Build 5.3.0.dev0)
  --------------------------------------------------------------

  WARNING 04: minimum elevation drop used for Conduit WS02004404WS02004405
  WARNING 03: negative offset ignored for Link YS02001904YS02001907
  
  *********************************************************
  NOTE: The summary statistics displayed in this report are
  based on results found at every computational time step,  
  not just on results from each reporting time step.
  *********************************************************
  
  ****************
  Analysis Options
  ****************
  Flow Units ............... LPS
  Process Models:
    Rainfall/Runoff ........ YES
    RDII ................... NO
    Snowmelt ............... NO
    Groundwater ............ NO
    Flow Routing ........... YES
    Ponding Allowed ........ NO
    Water Quality .......... YES
  Infiltration Method ...... HORTON
  Flow Routing Method ...... DYNWAVE
  Surcharge Method ......... EXTRAN
  Starting Date ............ 08/28/2015 08:00:00
  Ending Date .............. 08/28/2015 15:50:00
  Antecedent Dry Days ...... 8.0
  Report Time Step ......... 00:01:00
  Wet Time Step ............ 00:01:00
  Dry Time Step ............ 00:01:00
  Routing Time Step ........ 5.00 sec
  Variable Time Step ....... YES
  Maximum Trials ........... 8
  Number of Threads ........ 4
  Head Tolerance ........... 0.001500 m
  
  
  **************************        Volume         Depth
  Runoff Quantity Continuity     hectare-m            mm
  **************************     ---------       -------
  Total Precipitation ......         3.863         8.458
  Evaporation Loss .........         0.000         0.000
  Infiltration Loss ........         0.768         1.682
  Surface Runoff ...........         2.426         5.311
  Final Storage ............         0.670         1.467
  Continuity Error (%) .....        -0.019
  
  
  **************************           COD            SS            TN            TP         NH4-N
  Runoff Quality Continuity             kg            kg            kg            kg            kg
  **************************    ----------    ----------    ----------    ----------    ----------
  Initial Buildup ..........     41378.656     70582.865      1804.177       168.684      1032.807
  Surface Buildup ..........        14.788        22.980         2.258         0.208         1.328
  Wet Deposition ...........         0.000         0.000         0.000         0.000         0.000
  Sweeping Removal .........         0.000         0.000         0.000         0.000         0.000
  Infiltration Loss ........        49.018        88.562         0.947         0.065         0.447
  BMP Removal ..............         0.000         0.000         0.000         0.000         0.000
  Surface Runoff ...........      1682.241      2960.740        33.374         2.202        15.773
  Remaining Buildup ........     39661.690     67555.668      1772.104       166.624      1017.910
  Continuity Error (%) .....         0.001         0.001         0.001         0.000         0.000
  
  
  **************************        Volume        Volume
  Flow Routing Continuity        hectare-m      10^6 ltr
  **************************     ---------     ---------
  Dry Weather Inflow .......         0.616         6.165
  Wet Weather Inflow .......         2.425        24.247
  Groundwater Inflow .......         0.000         0.000
  RDII Inflow ..............         0.000         0.000
  External Inflow ..........         0.102         1.024
  External Outflow .........         1.683        16.827
  Flooding Loss ............         1.070        10.696
  Evaporation Loss .........         0.000         0.000
  Exfiltration Loss ........         0.000         0.000
  Initial Stored Volume ....         0.076         0.761
  Final Stored Volume ......         0.577         5.769
  Continuity Error (%) .....        -3.403
  
  
  **************************           COD            SS            TN            TP         NH4-N
  Quality Routing Continuity            kg            kg            kg            kg            kg
  **************************    ----------    ----------    ----------    ----------    ----------
  Dry Weather Inflow .......      1541.201      2465.922       147.955        18.494        92.472
  Wet Weather Inflow .......      1681.763      2959.954        33.363         2.201        15.768
  Groundwater Inflow .......         0.000         0.000         0.000         0.000         0.000
  RDII Inflow ..............         0.000         0.000         0.000         0.000         0.000
  External Inflow ..........       183.418       293.469        17.608         2.201        11.005
  External Outflow .........      2126.831      3508.246       165.294        20.058       101.669
  Flooding Loss ............       704.618      1228.749        15.213         1.118         7.518
  Exfiltration Loss ........         0.000         0.000         0.000         0.000         0.000
  Mass Reacted .............         0.000         0.000         0.000         0.000         0.000
  Initial Stored Mass ......         0.000         0.000         0.000         0.000         0.000
  Final Stored Mass ........       413.787       706.241        13.486         1.267         7.389
  Continuity Error (%) .....         4.731         4.828         2.480         1.983         2.239
  
  
  *************************
  Highest Continuity Errors
  *************************
  Node HS02004842 (18.73%)
  Node JK-storage (-15.44%)
  Node YS02001884 (11.25%)
  Node YS02001774 (5.52%)
  Node YSB1171 (3.98%)
  
  
  ***************************
  Time-Step Critical Elements
  ***************************
  Link WS02006252WS02006251 (55.16%)
  Link YS02006556YS02006558 (13.31%)
  Link WS02006238WS02006235 (8.34%)
  Link WS02006280WS02006229 (7.17%)
  Link YS02001793JiankangQianchi (3.80%)
  
  
  ********************************
  Highest Flow Instability Indexes
  ********************************
  Link WS02006113WS02006111 (41)
  Link YS02163601YS02164001 (32)
  Link YS02001629YS02163301 (31)
  Link YS02163301YS02001633 (31)
  Link YS02001619YS02001622 (30)
  
  
  *************************
  Routing Time Step Summary
  *************************
  Minimum Time Step           :     0.50 sec
  Average Time Step           :     1.39 sec
  Maximum Time Step           :     5.00 sec
  Percent in Steady State     :    -0.00
  Average Iterations per Step :     4.12
  Percent Not Converging      :    20.66
  
  
  ***************************
  Subcatchment Runoff Summary
  ***************************
  
  ------------------------------------------------------------------------------------------------------------------------------
                            Total      Total      Total      Total     Imperv       Perv      Total       Total     Peak  Runoff
                           Precip      Runon       Evap      Infil     Runoff     Runoff     Runoff      Runoff   Runoff   Coeff
  Subcatchment                 mm         mm         mm         mm         mm         mm         mm    10^6 ltr      LPS
  ------------------------------------------------------------------------------------------------------------------------------
  sub0                       8.46       0.00       0.00       0.59       7.82       0.00       7.82        0.01     1.16   0.925
  sub1                       8.46       0.00       0.00       0.93       7.44       0.00       7.44        0.05     7.70   0.880
  sub2                       8.46       0.00       0.00       3.13       5.25       0.00       5.25        0.05     7.52   0.620
  sub3                       8.46       0.00       0.00       3.13       5.21       0.00       5.21        0.12    17.42   0.616
  sub4                       8.46       0.00       0.00       0.93       7.29       0.00       7.29        0.15    21.43   0.862
  sub5                       8.46       0.00       0.00       0.59       7.77       0.00       7.77        0.09    13.72   0.919
  sub7                       8.46       0.00       0.00       0.76       7.64       0.00       7.64        0.03     4.36   0.903
  sub8                       8.46       0.00       0.00       0.76       7.63       0.00       7.63        0.05     7.94   0.902
  sub9                       8.46       0.00       0.00       0.76       7.62       0.00       7.62        0.04     5.92   0.901
  sub10                      8.46       0.00       0.00       0.68       7.70       0.00       7.70        0.08    13.25   0.910
  sub11                      8.46       0.00       0.00       0.68       7.71       0.00       7.71        0.09    14.79   0.912
  sub12                      8.46       0.00       0.00       1.10       7.31       0.00       7.31        0.06    11.39   0.865
  sub14                      8.46       0.00       0.00       0.76       7.62       0.00       7.62        0.07    11.62   0.901
  sub15                      8.46       0.00       0.00       2.54       5.86       0.00       5.86        0.10    15.92   0.693
  sub16                      8.46       0.00       0.00       2.79       5.63       0.00       5.63        0.06    10.32   0.665
  sub17                      8.46       0.00       0.00       2.71       5.71       0.00       5.71        0.05     8.48   0.675
  sub22                      8.46       0.00       0.00       3.64       4.78       0.00       4.78        0.30    50.23   0.565
  sub23                      8.46       0.00       0.00       3.13       5.28       0.00       5.29        0.25    42.38   0.625
  sub60                      8.46       0.00       0.00       1.01       5.86       0.00       5.86        1.78   164.80   0.693
  sub61                      8.46       0.00       0.00       1.44       6.03       0.00       6.03        1.86   190.11   0.712
  sub62                      8.46       0.00       0.00       0.68       6.53       0.00       6.53        2.01   200.02   0.772
  sub63                      8.46       0.00       0.00       2.45       5.29       0.00       5.29        1.60   170.11   0.626
  sub64                      8.46       0.00       0.00       1.27       5.62       0.00       5.62        1.71   157.25   0.664
  sub65                      8.46       0.00       0.00       1.10       5.71       0.00       5.71        1.75   160.29   0.675
  sub66                      8.46       0.00       0.00       2.45       4.84       0.00       4.84        1.48   141.15   0.572
  sub67                      8.46       0.00       0.00       0.68       6.95       0.00       6.95        2.15   235.00   0.822
  sub68                      8.46       0.00       0.00       1.18       6.35       0.00       6.35        1.95   204.33   0.751
  sub69                      8.46       0.00       0.00       1.27       6.64       0.00       6.64        1.55   184.58   0.785
  sub70                      8.46       6.78       0.00       5.12       8.72       0.07       8.79        2.01   196.15   0.577
  sub71                      8.46       0.00       0.00       0.68       6.34       0.00       6.34        1.50   143.90   0.749
  sub72                      8.46       0.00       0.00       0.59       4.90       0.00       4.90        1.00    76.81   0.580
  1                          8.46       8.55       0.00       1.37       9.41       2.10      11.51        2.70   208.46   0.676
  2                          8.46       0.00       0.00       3.02       1.98       0.82       2.80        1.12   115.90   0.331
  
  
  ****************************
  Subcatchment Washoff Summary
  ****************************
  
  ------------------------------------------------------------------------------------------
                                 COD            SS            TN            TP         NH4-N
  Subcatchment                    kg            kg            kg            kg            kg
  ------------------------------------------------------------------------------------------
  sub0                         1.269         2.347         0.021         0.002         0.010
  sub1                         5.368        10.152         0.101         0.007         0.048
  sub2                         3.123         5.706         0.069         0.004         0.031
  sub3                         7.722        13.979         0.167         0.011         0.076
  sub4                        12.451        23.697         0.253         0.015         0.121
  sub5                        12.367        23.084         0.218         0.016         0.105
  sub7                         2.789         5.362         0.053         0.003         0.025
  sub8                         4.236         8.323         0.086         0.005         0.041
  sub9                         3.593         6.962         0.070         0.004         0.034
  sub10                       10.223        19.332         0.187         0.013         0.090
  sub11                       10.038        19.218         0.188         0.013         0.091
  sub12                        8.270        15.515         0.149         0.011         0.071
  sub14                        7.633        14.652         0.146         0.009         0.070
  sub15                        8.991        16.442         0.177         0.013         0.082
  sub16                        5.608        10.223         0.108         0.008         0.050
  sub17                        5.144         9.292         0.096         0.007         0.045
  sub22                       26.265        46.903         0.511         0.038         0.236
  sub23                       16.126        29.920         0.358         0.023         0.162
  sub60                      110.752       195.035         2.286         0.135         1.092
  sub61                      136.872       239.775         2.604         0.173         1.250
  sub62                      144.527       257.978         2.905         0.177         1.390
  sub63                      101.086       174.440         2.111         0.144         0.969
  sub64                      134.770       228.554         2.530         0.180         1.201
  sub65                      138.284       235.567         2.616         0.182         1.245
  sub66                       79.273       135.678         1.706         0.108         0.791
  sub67                      212.964       376.541         3.838         0.276         1.849
  sub68                      152.046       269.323         2.984         0.195         1.419
  sub69                      137.517       246.419         2.625         0.179         1.248
  sub70                      219.731       394.922         4.508         0.304         2.092
  sub71                       96.028       172.929         2.053         0.114         0.979
  sub72                       70.255       117.341         1.348         0.089         0.647
  1                          135.616       245.399         2.861         0.193         1.310
  2                           18.550        31.072         0.575         0.034         0.241
  ------------------------------------------------------------------------------------------
  System                    2039.488      3602.082        40.506         2.685        19.114
  
  
  ******************
  Node Depth Summary
  ******************
  
  ---------------------------------------------------------------------------------
                                 Average  Maximum  Maximum  Time of Max    Reported
                                   Depth    Depth      HGL   Occurrence   Max Depth
  Node                 Type       Meters   Meters   Meters  days hr:min      Meters
  ---------------------------------------------------------------------------------
  WS02001211           JUNCTION     0.76     0.80     5.64     0  03:31        0.80
  WS02001212           JUNCTION     0.47     0.51     5.58     0  03:31        0.51
  WS02001213           JUNCTION     0.70     0.77     5.53     0  03:30        0.77
  WS02003069           JUNCTION     0.47     0.60     5.18     0  03:29        0.60
  WS02003072           JUNCTION     0.53     0.65     5.03     0  03:30        0.65
  WS02003073           JUNCTION     0.32     0.40     4.47     0  03:31        0.40
  WS02003060           JUNCTION     0.42     0.53     5.46     0  03:29        0.53
  WS02003066           JUNCTION     0.21     0.31     5.86     0  03:28        0.31
  WS02003059           JUNCTION     0.74     0.82     5.51     0  03:29        0.82
  WS02003067           JUNCTION     0.54     0.72     6.04     0  03:28        0.72
  WS02004401           JUNCTION     0.64     0.89     6.89     0  03:23        0.89
  WS02004402           JUNCTION     0.68     0.91     6.87     0  03:24        0.91
  WS02004403           JUNCTION     0.70     0.92     6.85     0  03:24        0.92
  WS02004404           JUNCTION     0.77     0.99     6.84     0  03:24        0.99
  WS02004406           JUNCTION     0.78     0.98     6.81     0  03:24        0.98
  WS02004409           JUNCTION     0.45     0.70     6.47     0  03:27        0.70
  WS02004410           JUNCTION     0.47     0.71     6.43     0  03:27        0.71
  WS02004411           JUNCTION     0.48     0.72     6.40     0  03:27        0.72
  WS02004412           JUNCTION     0.50     0.72     6.36     0  03:27        0.72
  WS02004413           JUNCTION     0.66     0.88     6.35     0  03:28        0.88
  WS02004405           JUNCTION     0.77     0.98     6.83     0  03:24        0.98
  WS02006109           JUNCTION     0.73     1.03     7.65     0  03:18        1.03
  WS02006110           JUNCTION     0.72     0.96     7.54     0  03:20        0.96
  WS02006111           JUNCTION     0.21     0.30     7.01     0  03:19        0.30
  WS02006112           JUNCTION     0.81     1.15     7.03     0  03:26        1.11
  WS02006113           JUNCTION     0.32     0.48     7.37     0  03:19        0.48
  WS02006115           JUNCTION     0.53     0.79     6.93     0  03:23        0.79
  WS02006116           JUNCTION     0.62     0.87     6.91     0  03:23        0.87
  WS02006230           JUNCTION     0.70     1.16     7.91     0  03:18        1.16
  WS02006231           JUNCTION     0.45     0.91     8.04     0  03:19        0.91
  WS02006232           JUNCTION     0.59     1.10     8.14     0  03:19        1.10
  WS02006234           JUNCTION     0.51     1.10     8.26     0  03:21        1.10
  WS02006235           JUNCTION     0.55     1.19     8.36     0  03:19        1.19
  WS02006238           JUNCTION     0.57     1.22     8.36     0  03:24        1.21
  WS02006240           JUNCTION     0.46     1.16     8.45     0  03:20        1.15
  WS02006242           JUNCTION     0.50     1.23     8.50     0  03:19        1.23
  WS02006243           JUNCTION     0.38     1.14     8.56     0  03:23        1.13
  WS02006245           JUNCTION     0.35     1.12     8.61     0  03:23        1.12
  WS02006247           JUNCTION     0.36     1.14     8.64     0  03:18        1.13
  WS02006248           JUNCTION     0.30     1.08     8.67     0  03:22        1.08
  WS02006249           JUNCTION     0.32     1.09     8.69     0  03:18        1.09
  WS02006239           JUNCTION     0.52     1.20     8.41     0  03:21        1.19
  WS02006251           JUNCTION     0.30     1.31     8.98     0  03:18        1.17
  WS02006252           JUNCTION     0.21     0.85     9.09     0  03:18        0.68
  WS02006253           JUNCTION     0.33     1.39     9.03     0  03:18        1.36
  WS02006256           JUNCTION     1.74     2.35     9.28     0  00:00        2.35
  WS02004138           JUNCTION     0.19     0.20     7.45     0  00:00        0.19
  WS02004139           JUNCTION     0.71     0.74     5.65     0  03:32        0.74
  WS02004407           JUNCTION     0.20     0.31     6.62     0  03:24        0.31
  WS02006228           JUNCTION     0.73     1.09     7.74     0  03:18        1.08
  WS02006229           JUNCTION     0.71     1.08     7.78     0  03:18        1.08
  WS02006280           JUNCTION     0.07     0.14     8.42     0  02:09        0.14
  WS02006284           JUNCTION     0.36     0.48     8.88     0  02:09        0.48
  WS02006287           JUNCTION     0.10     0.21     9.17     0  02:08        0.21
  WSF200               JUNCTION     0.19     0.32     5.55     0  03:28        0.32
  HS02004901           JUNCTION     0.12     0.23    10.05     0  01:37        0.23
  HS02004881           JUNCTION     0.01     0.02     9.05     0  02:08        0.02
  HS02004876           JUNCTION     0.04     0.10     9.13     0  02:07        0.10
  HS02004870           JUNCTION     0.01     0.04     9.33     0  02:08        0.04
  HS02004862           JUNCTION     0.02     0.05     9.43     0  02:08        0.05
  HS02004856           JUNCTION     0.08     0.11     9.53     0  02:08        0.11
  HS02004852           JUNCTION     0.01     0.03     9.54     0  02:09        0.03
  HS02004848           JUNCTION     0.01     0.03     9.63     0  02:08        0.03
  HS02004842           JUNCTION     0.33     0.36     9.63     0  02:08        0.36
  HS02004837           JUNCTION     0.03     0.05     9.63     0  02:08        0.05
  HS02004830           JUNCTION     0.04     0.06     9.53     0  02:09        0.06
  HS02004824           JUNCTION     0.02     0.04     9.45     0  02:09        0.04
  HS02004817           JUNCTION     0.44     0.53     9.38     0  02:09        0.53
  HS02004807           JUNCTION     0.12     0.21     9.38     0  02:09        0.21
  HS02004802           JUNCTION     0.16     0.24     9.37     0  02:09        0.24
  HS02004799           JUNCTION     0.12     0.25     9.46     0  01:38        0.25
  HS02004792           JUNCTION     0.03     0.10     9.62     0  01:37        0.10
  HS02004788           JUNCTION     0.03     0.07     9.97     0  01:38        0.07
  HS02004785           JUNCTION     0.05     0.13    10.03     0  01:38        0.13
  HS02004777           JUNCTION     0.15     0.25    10.05     0  01:37        0.25
  HS02004770           JUNCTION     0.12     0.22    10.05     0  01:37        0.22
  HS02004480           JUNCTION     0.08     0.20     9.44     0  01:38        0.20
  HS02004479           JUNCTION     0.12     0.23     9.44     0  01:39        0.23
  HS02004478           JUNCTION     0.06     0.13     9.35     0  02:08        0.13
  YS02001745           JUNCTION     0.70     0.87     8.39     0  03:44        0.87
  YS02001748           JUNCTION     1.10     1.37     8.45     0  02:34        1.30
  YS02001751           JUNCTION     1.28     2.20     9.08     0  02:20        1.51
  YS02001754           JUNCTION     1.53     2.10     8.71     0  02:20        1.79
  YS02001762           JUNCTION     1.73     2.04     8.44     0  02:48        2.01
  YS02001765           JUNCTION     1.68     1.99     8.44     0  02:47        1.96
  YS02001767           JUNCTION     1.65     1.94     8.43     0  02:47        1.92
  YS02001770           JUNCTION     1.64     1.93     8.43     0  02:39        1.90
  YS02001774           JUNCTION     1.71     1.99     8.42     0  02:39        1.96
  YS02001779           JUNCTION     1.46     1.68     8.37     0  02:23        1.68
  YS02001882           JUNCTION     0.38     0.65     7.36     0  02:34        0.64
  YS02001884           JUNCTION     0.48     0.74     7.36     0  02:33        0.74
  YS02001759           JUNCTION     1.76     2.08     8.45     0  02:48        2.05
  YS02001887           JUNCTION     0.56     0.82     7.36     0  02:33        0.82
  YS02001890           JUNCTION     0.59     0.85     7.36     0  02:33        0.85
  YS02001898           JUNCTION     0.35     0.61     7.34     0  02:32        0.60
  YS02001901           JUNCTION     0.47     0.73     7.34     0  02:32        0.73
  YS02001904           JUNCTION     0.45     0.71     7.34     0  02:55        0.70
  YS02001907           JUNCTION     0.78     1.07     7.36     0  02:55        1.05
  YS02001910           JUNCTION     0.57     0.83     7.34     0  02:55        0.83
  YS02001915           JUNCTION     0.37     0.62     7.34     0  02:56        0.62
  YS02001918           JUNCTION     0.14     0.27     7.33     0  02:51        0.27
  YS02001619           JUNCTION     1.24     1.57     8.50     0  02:29        1.47
  YS02001629           JUNCTION     1.59     1.85     8.40     0  02:34        1.85
  YS02001641           JUNCTION     1.70     1.94     8.38     0  02:43        1.93
  YS02001644           JUNCTION     1.70     1.92     8.35     0  02:41        1.92
  YS02001652           JUNCTION     1.54     2.14     8.74     0  02:56        1.91
  YS02001655           JUNCTION     1.31     2.06     8.91     0  03:13        1.72
  YS02001920           JUNCTION     0.23     0.34     7.35     0  02:52        0.34
  YS02001923           JUNCTION     0.09     0.13     7.39     0  03:01        0.13
  YS02001926           JUNCTION     0.18     0.24     7.69     0  03:01        0.24
  YS02001929           JUNCTION     0.09     0.13     7.82     0  03:01        0.13
  YS02001658           JUNCTION     1.04     2.12     9.26     0  02:56        1.50
  YS02001661           JUNCTION     0.81     2.16     9.57     0  02:56        1.38
  YS02001664           JUNCTION     0.36     0.57     8.49     0  02:50        0.57
  YS02001622           JUNCTION     1.26     1.53     8.43     0  02:29        1.49
  YS02001633           JUNCTION     1.69     1.95     8.41     0  02:42        1.94
  YS02001649           JUNCTION     1.74     2.05     8.44     0  02:45        2.05
  YS02001757           JUNCTION     1.86     2.18     8.44     0  02:48        2.15
  YS02001895           JUNCTION     0.35     0.60     7.35     0  02:33        0.60
  YS02001625           JUNCTION     1.55     1.78     8.38     0  02:33        1.78
  YS02163301           JUNCTION     1.62     1.90     8.42     0  02:34        1.88
  YS02163601           JUNCTION     1.74     2.00     8.40     0  02:42        1.99
  YS02164001           JUNCTION     1.68     1.93     8.39     0  02:42        1.92
  YS02001647           JUNCTION     1.53     1.82     8.43     0  02:48        1.79
  YSB1154              JUNCTION     0.25     0.38     9.44     0  01:38        0.38
  YSB6556              JUNCTION     0.15     0.27     9.44     0  01:38        0.27
  YSB1174              JUNCTION     0.21     0.33     9.44     0  01:38        0.33
  YSB1171              JUNCTION     0.41     0.54     9.44     0  01:39        0.54
  YS02006553           JUNCTION     0.78     1.07     7.36     0  02:55        1.05
  YS02006561           JUNCTION     0.20     0.37     7.03     0  03:12        0.36
  YS02006556           JUNCTION     0.76     1.05     7.36     0  02:55        1.02
  YS02006558           JUNCTION     0.80     1.08     7.35     0  02:55        1.07
  YS02001783           JUNCTION     0.37     1.37     7.51     0  03:12        0.91
  YS02001784           JUNCTION     0.40     1.44     7.50     0  03:12        0.93
  YS02001786           JUNCTION     0.35     1.57     7.60     0  03:12        0.89
  YS02001788           JUNCTION     0.28     1.49     7.46     0  03:12        0.87
  YS02001790           JUNCTION     0.35     1.96     7.60     0  03:10        1.12
  YS02001791           JUNCTION     0.29     2.72     8.19     0  03:09        1.21
  YS02001793           JUNCTION     0.36     2.86     7.69     0  03:08        1.79
  WSC                  OUTFALL      0.32     0.40     1.07     0  03:31        0.40
  JK-storage           STORAGE      2.11     5.80     6.60     0  02:11        5.80
  CC-storage           STORAGE      1.12     1.38     8.38     0  03:44        1.38
  XR-storage           STORAGE      4.18     7.19     5.19     0  04:23        7.19
  
  
  *******************
  Node Inflow Summary
  *******************
  
  -------------------------------------------------------------------------------------------------
                                  Maximum  Maximum                  Lateral       Total        Flow
                                  Lateral    Total  Time of Max      Inflow      Inflow     Balance
                                   Inflow   Inflow   Occurrence      Volume      Volume       Error
  Node                 Type           LPS      LPS  days hr:min    10^6 ltr    10^6 ltr     Percent
  -------------------------------------------------------------------------------------------------
  WS02001211           JUNCTION      7.35   389.03     0  04:00       0.207        10.3       0.397
  WS02001212           JUNCTION      0.00   390.62     0  04:00           0        10.2       0.240
  WS02001213           JUNCTION      0.00   392.22     0  03:59           0        10.2       0.288
  WS02003069           JUNCTION      0.32   981.61     0  03:29     0.00902        16.9       0.225
  WS02003072           JUNCTION      0.00   981.45     0  03:30           0        16.9       0.264
  WS02003073           JUNCTION      1.82   983.21     0  03:30      0.0514        16.9       0.305
  WS02003060           JUNCTION     16.53   981.35     0  03:29       0.466        16.9       0.211
  WS02003066           JUNCTION      0.00   581.28     0  03:28           0        6.36       0.084
  WS02003059           JUNCTION      0.00   394.94     0  03:59           0        10.2       0.405
  WS02003067           JUNCTION      0.00   581.23     0  03:28           0        6.37       0.167
  WS02004401           JUNCTION      0.00   585.15     0  03:23           0        6.64       0.378
  WS02004402           JUNCTION      0.00   584.59     0  03:23           0        6.62       0.350
  WS02004403           JUNCTION      0.00   584.05     0  03:24           0        6.59       0.314
  WS02004404           JUNCTION      0.16   583.97     0  03:24     0.00457        6.58       0.231
  WS02004406           JUNCTION      0.00   583.92     0  03:24           0        6.54       0.566
  WS02004409           JUNCTION      0.00   583.35     0  03:24           0         6.5       0.317
  WS02004410           JUNCTION      0.00   581.89     0  03:27           0        6.48       0.350
  WS02004411           JUNCTION      0.00   581.55     0  03:27           0        6.45       0.353
  WS02004412           JUNCTION      0.00   581.47     0  03:27           0        6.43       0.371
  WS02004413           JUNCTION      0.00   581.29     0  03:27           0        6.41       0.538
  WS02004405           JUNCTION      0.04   583.84     0  03:24     0.00107        6.56       0.344
  WS02006109           JUNCTION      1.23   588.97     0  03:19      0.0347        6.73       0.293
  WS02006110           JUNCTION      0.00   588.81     0  03:19           0        6.72       0.325
  WS02006111           JUNCTION      0.00   617.42     0  03:19           0        6.68       0.089
  WS02006112           JUNCTION      8.48   595.73     0  03:19       0.049        6.72       0.513
  WS02006113           JUNCTION      0.00   589.38     0  03:19           0        6.69       0.183
  WS02006115           JUNCTION      0.00   597.73     0  03:20           0        6.69       0.382
  WS02006116           JUNCTION      0.00   586.54     0  03:23           0        6.66       0.327
  WS02006230           JUNCTION     10.28   519.62     0  03:24        0.29        5.24       0.340
  WS02006231           JUNCTION      0.00   509.33     0  03:24           0        4.96       0.251
  WS02006232           JUNCTION      0.00   509.35     0  03:24           0        4.98       0.425
  WS02006234           JUNCTION      0.00   509.94     0  03:24           0        4.98       0.135
  WS02006235           JUNCTION      0.00   509.98     0  03:24           0        5.14       0.346
  WS02006238           JUNCTION      0.00   317.17     0  03:24           0           2       0.368
  WS02006240           JUNCTION      0.00   317.01     0  03:24           0         1.9       0.886
  WS02006242           JUNCTION      0.00   316.96     0  03:24           0        1.87       1.077
  WS02006243           JUNCTION      0.00   316.99     0  03:24           0        1.84       0.667
  WS02006245           JUNCTION      0.00   330.81     0  05:50           0        1.84       0.828
  WS02006247           JUNCTION      0.00   349.48     0  05:50           0        1.85       0.592
  WS02006248           JUNCTION      0.00   363.56     0  05:50           0        1.85       0.347
  WS02006249           JUNCTION      0.00   411.03     0  03:20           0        1.89       0.802
  WS02006239           JUNCTION      0.00   317.38     0  03:24           0        1.95       0.665
  WS02006251           JUNCTION      0.08   411.87     0  03:20     0.00217        1.93       0.511
  WS02006252           JUNCTION      0.00   399.86     0  03:20           0        1.62       0.036
  WS02006253           JUNCTION      1.16    97.93     0  03:16     0.00633       0.309       1.847
  WS02006256           JUNCTION      0.00   983.00     0  02:30           0        7.12      -0.009
  WS02004138           JUNCTION      0.00   380.00     0  00:00           0        10.1       0.064
  WS02004139           JUNCTION      0.32   395.85     0  00:00     0.00905        10.1       0.453
  WS02004407           JUNCTION      0.00   583.61     0  03:24           0        6.51       0.140
  WS02006228           JUNCTION      0.00   587.83     0  03:19           0        6.72       0.239
  WS02006229           JUNCTION      0.00   586.95     0  03:19           0        6.73       0.260
  WS02006280           JUNCTION      0.00   211.61     0  02:09           0        1.52       0.004
  WS02006284           JUNCTION      0.10   211.60     0  02:09      0.0027        1.52       0.028
  WS02006287           JUNCTION      0.00   211.51     0  02:08           0        1.52       0.048
  WSF200               JUNCTION      0.00   581.29     0  03:28           0        6.36       0.083
  HS02004901           JUNCTION     10.32    10.32     0  01:33      0.0589      0.0592       3.063
  HS02004881           JUNCTION      4.36    42.78     0  02:08      0.0257       0.274       0.076
  HS02004876           JUNCTION      7.70    38.75     0  02:08      0.0495       0.248       0.215
  HS02004870           JUNCTION      7.94    31.07     0  02:08      0.0487       0.199       0.054
  HS02004862           JUNCTION      7.72    23.49     0  02:08      0.0545       0.151       0.112
  HS02004856           JUNCTION      5.92    15.80     0  02:08      0.0367      0.0975       1.505
  HS02004852           JUNCTION      0.00    10.11     0  02:08           0      0.0609       0.087
  HS02004848           JUNCTION     17.42    17.42     0  02:08       0.117       0.117       0.037
  HS02004842           JUNCTION      0.00     7.32     0  02:10           0      0.0694      23.040
  HS02004837           JUNCTION     19.60    26.85     0  02:08       0.264        0.32       0.254
  HS02004830           JUNCTION      0.15    26.99     0  02:08     0.00423       0.311       0.398
  HS02004824           JUNCTION     21.48    48.47     0  02:09       0.154       0.463       0.116
  HS02004817           JUNCTION      0.60    49.06     0  02:09      0.0169       0.479       3.602
  HS02004807           JUNCTION     14.79    62.91     0  02:09      0.0896       0.553       0.793
  HS02004802           JUNCTION      0.00    62.92     0  02:10           0       0.552       0.722
  HS02004799           JUNCTION     11.62   130.75     0  01:37      0.0725       0.835       0.346
  HS02004792           JUNCTION     50.51   119.20     0  01:37        0.31       0.763       0.053
  HS02004788           JUNCTION     17.59    69.40     0  01:38       0.148       0.454       0.086
  HS02004785           JUNCTION      0.15    51.92     0  01:37     0.00423       0.307       0.159
  HS02004777           JUNCTION      0.03    52.01     0  01:35    0.000846       0.308       1.716
  HS02004770           JUNCTION     42.38    52.41     0  01:35       0.252       0.309       1.006
  HS02004480           JUNCTION      0.00   154.76     0  01:38           0       0.983       0.096
  HS02004479           JUNCTION      0.00    24.23     0  01:40           0        0.16       0.458
  HS02004478           JUNCTION      0.00   211.50     0  02:08           0        1.52       0.023
  YS02001745           JUNCTION    164.81   213.10     0  02:34        1.78        1.78       0.623
  YS02001748           JUNCTION      0.04   360.01     0  02:34     0.00127        1.77       1.284
  YS02001751           JUNCTION      0.01   357.73     0  02:20     0.00031        1.74       1.340
  YS02001754           JUNCTION      0.26   196.47     0  02:17     0.00733        1.73       1.451
  YS02001762           JUNCTION      0.00   232.69     0  02:29           0        1.55       1.388
  YS02001765           JUNCTION      0.00   227.51     0  02:29           0        1.55       1.589
  YS02001767           JUNCTION      0.54   222.79     0  02:29      0.0151        1.57       2.317
  YS02001770           JUNCTION    200.17   210.66     0  02:29        2.01        2.03       1.575
  YS02001774           JUNCTION      0.00   163.27     0  03:07           0       0.459       5.841
  YS02001779           JUNCTION      0.01   163.71     0  03:07    0.000141       0.428       3.702
  YS02001882           JUNCTION      0.00    13.56     0  02:22           0      0.0184      12.169
  YS02001884           JUNCTION      0.00    20.73     0  03:09           0      0.0492      12.679
  YS02001759           JUNCTION    190.15   423.14     0  02:29        1.86        3.36       0.690
  YS02001887           JUNCTION    235.45   247.03     0  02:52        2.16        2.18       0.360
  YS02001890           JUNCTION      0.00   245.20     0  02:34           0        2.14       0.402
  YS02001898           JUNCTION      0.00   250.21     0  02:34           0        2.13       0.121
  YS02001901           JUNCTION      0.00   252.00     0  02:35           0        2.13       0.298
  YS02001904           JUNCTION      0.00   252.88     0  02:34           0        2.13       0.272
  YS02001907           JUNCTION      0.00   482.47     0  02:56           0        4.68       0.500
  YS02001910           JUNCTION      0.00   245.13     0  02:58           0        2.56       0.432
  YS02001915           JUNCTION    143.92   236.91     0  02:57         1.5        2.57       0.208
  YS02001918           JUNCTION      0.00    87.75     0  02:58           0        1.08       0.149
  YS02001619           JUNCTION    141.15   141.15     0  02:54        1.48        1.48       0.821
  YS02001629           JUNCTION      0.00   187.29     0  02:17           0         1.4       2.082
  YS02001641           JUNCTION      0.00   322.02     0  02:32           0        3.06       0.700
  YS02001644           JUNCTION    157.29   801.76     0  03:04        1.71        7.32       0.356
  YS02001652           JUNCTION      0.00   242.05     0  02:27           0        1.55       1.556
  YS02001655           JUNCTION      0.15   351.31     0  02:18     0.00434        1.58       1.600
  YS02001920           JUNCTION      2.87    79.72     0  03:01      0.0809        1.08       0.242
  YS02001923           JUNCTION      0.04    76.85     0  03:01     0.00106       0.998       0.044
  YS02001926           JUNCTION      0.05    76.85     0  03:01     0.00147       0.999       0.299
  YS02001929           JUNCTION     76.81    76.81     0  03:01       0.998       0.998       0.043
  YS02001658           JUNCTION      0.00   579.56     0  02:27           0        1.62       1.336
  YS02001661           JUNCTION      0.00   543.64     0  02:46           0        1.86       0.184
  YS02001664           JUNCTION    170.11   365.99     0  02:46         1.6        1.84       0.330
  YS02001622           JUNCTION      0.00   155.20     0  02:21           0        1.47       2.207
  YS02001633           JUNCTION    160.49   320.83     0  02:32        1.76        3.12       1.046
  YS02001649           JUNCTION      0.00   629.05     0  02:27           0        4.87       0.778
  YS02001757           JUNCTION      0.00  1147.62     0  02:41           0        7.41       1.260
  YS02001895           JUNCTION      0.00   251.29     0  02:35           0        2.13       0.215
  YS02001625           JUNCTION      0.00   187.31     0  02:17           0        1.44       2.800
  YS02163301           JUNCTION      0.00   168.28     0  02:32           0        1.38       1.765
  YS02163601           JUNCTION      0.11   322.44     0  02:32      0.0031        3.08       0.990
  YS02164001           JUNCTION      0.00   323.40     0  02:32           0        3.06       0.666
  YS02001647           JUNCTION      0.00   474.12     0  02:32           0        4.16       0.688
  YSB1154              JUNCTION     13.72    13.72     0  02:07       0.088      0.0887       1.656
  YSB6556              JUNCTION      0.00    13.71     0  02:07           0      0.0894       1.418
  YSB1174              JUNCTION     11.39    11.39     0  01:33      0.0639      0.0643       2.034
  YSB1171              JUNCTION      0.00    24.40     0  01:39           0       0.159       4.142
  YS02006553           JUNCTION      0.00   474.35     0  02:56           0        4.67       0.326
  YS02006561           JUNCTION      0.00   702.70     0  02:50           0        6.59       0.009
  YS02006556           JUNCTION      0.00   476.82     0  02:56           0        4.67       0.230
  YS02006558           JUNCTION    205.21   698.49     0  02:55        1.98        6.62       0.070
  YS02001783           JUNCTION      0.00   678.11     0  02:57           0        6.59       0.024
  YS02001784           JUNCTION      1.06   675.85     0  02:57      0.0299        6.62       0.044
  YS02001786           JUNCTION      0.06   676.36     0  02:30     0.00159        6.62       0.039
  YS02001788           JUNCTION      0.07   713.88     0  02:30       0.002        6.62       0.028
  YS02001790           JUNCTION      0.15   772.23     0  02:29     0.00437        6.62       0.010
  YS02001791           JUNCTION      0.00   811.83     0  02:30           0        6.62       0.013
  YS02001793           JUNCTION      0.00   859.42     0  02:30           0        6.63      -0.048
  WSC                  OUTFALL       0.00   983.10     0  03:31           0        16.8       0.000
  JK-storage           STORAGE       0.00   877.13     0  03:08           0        6.78     -13.379
  CC-storage           STORAGE       0.00  1148.12     0  02:41           0        5.52       1.175
  XR-storage           STORAGE     515.95   515.95     0  02:56        9.46        10.1      -0.270
  
  
  **********************
  Node Surcharge Summary
  **********************
  
  Surcharging occurs when water rises above the top of the highest conduit.
  ---------------------------------------------------------------------
                                               Max. Height   Min. Depth
                                   Hours       Above Crown    Below Rim
  Node                 Type      Surcharged         Meters       Meters
  ---------------------------------------------------------------------
  WS02006109           JUNCTION        2.24          0.213        1.607
  WS02006110           JUNCTION        0.23          0.050        1.800
  WS02006112           JUNCTION        0.44          0.146        1.534
  WS02006230           JUNCTION        0.19          0.085        1.485
  WS02006231           JUNCTION        0.30          0.203        1.327
  WS02006232           JUNCTION        1.57          0.404        1.076
  WS02006234           JUNCTION        0.90          0.384        0.856
  WS02006235           JUNCTION        1.23          0.482        0.808
  WS02006238           JUNCTION        1.34          0.500        0.930
  WS02006240           JUNCTION        0.53          0.448        0.942
  WS02006242           JUNCTION        0.73          0.503        0.317
  WS02006243           JUNCTION        0.40          0.428        0.342
  WS02006245           JUNCTION        0.35          0.415        0.435
  WS02006247           JUNCTION        0.35          0.427        0.333
  WS02006248           JUNCTION        0.25          0.363        0.017
  WS02006249           JUNCTION        0.28          0.390        0.000
  WS02006239           JUNCTION        0.88          0.460        0.830
  WS02006251           JUNCTION        0.12          0.284        0.896
  WS02006252           JUNCTION        0.38          0.449        0.651
  WS02006253           JUNCTION        0.13          0.348        2.132
  WS02006256           JUNCTION        6.65          2.050        0.000
  WS02006228           JUNCTION        2.16          0.256        1.944
  YS02001748           JUNCTION        5.21          0.291        0.899
  YS02001751           JUNCTION        5.45          1.200        0.000
  YS02001754           JUNCTION        5.75          1.052        0.098
  YS02001762           JUNCTION        5.97          1.039        0.111
  YS02001765           JUNCTION        5.93          0.987        0.113
  YS02001767           JUNCTION        5.91          0.939        0.091
  YS02001770           JUNCTION        5.89          0.900        0.020
  YS02001774           JUNCTION        5.96          0.993        0.057
  YS02001779           JUNCTION        5.73          0.680        0.000
  YS02001759           JUNCTION        5.99          1.082        0.128
  YS02001907           JUNCTION        0.93          0.060        0.890
  YS02001619           JUNCTION        5.42          0.575        0.035
  YS02001629           JUNCTION        5.43          0.470        0.000
  YS02001641           JUNCTION        5.94          0.941        0.159
  YS02001644           JUNCTION        5.95          0.920        0.000
  YS02001652           JUNCTION        5.80          1.112        0.018
  YS02001655           JUNCTION        5.47          1.062        0.138
  YS02001658           JUNCTION        5.23          1.121        0.179
  YS02001661           JUNCTION        0.10          1.095        0.295
  YS02001622           JUNCTION        5.47          0.529        0.091
  YS02001633           JUNCTION        5.92          0.933        0.127
  YS02001649           JUNCTION        5.97          1.050        0.000
  YS02001757           JUNCTION        6.08          1.183        0.027
  YS02001625           JUNCTION        5.84          0.780        0.000
  YS02163301           JUNCTION        5.90          0.898        0.132
  YS02163601           JUNCTION        5.97          0.998        0.082
  YS02164001           JUNCTION        5.93          0.930        0.170
  YS02001647           JUNCTION        5.82          0.824        0.076
  YS02006553           JUNCTION        1.05          0.074        1.116
  YS02006556           JUNCTION        0.01          0.012        1.338
  YS02001783           JUNCTION        0.21          0.568        1.032
  YS02001784           JUNCTION        0.29          0.637        0.853
  YS02001786           JUNCTION        0.20          0.767        0.663
  YS02001788           JUNCTION        0.16          0.687        0.793
  YS02001790           JUNCTION        0.78          1.157        0.000
  YS02001791           JUNCTION        0.84          1.920        0.000
  YS02001793           JUNCTION        1.05          1.861        0.739
  
  
  *********************
  Node Flooding Summary
  *********************
  
  Flooding refers to all water that overflows a node, whether it ponds or not.
  --------------------------------------------------------------------------
                                                             Total   Maximum
                                 Maximum   Time of Max       Flood    Ponded
                        Hours       Rate    Occurrence      Volume     Depth
  Node                 Flooded       LPS   days hr:min    10^6 ltr    Meters
  --------------------------------------------------------------------------
  WS02006249              0.11    107.93      0  03:18       0.024     0.000
  WS02006256              3.30    791.09      0  03:20       3.861     0.000
  YS02001751              0.01    181.37      0  02:20       0.000     0.000
  YS02001779              2.03    163.61      0  03:07       0.408     0.000
  YS02001629              0.01     21.01      0  02:35       0.000     0.000
  YS02001644              4.57    801.66      0  03:04       5.697     0.000
  YS02001649              0.03     32.44      0  02:54       0.001     0.000
  YS02001625              0.05     18.46      0  02:35       0.001     0.000
  YS02001790              0.01    237.70      0  03:10       0.000     0.000
  YS02001791              0.01    223.54      0  03:09       0.000     0.000
  JK-storage              0.60    613.82      0  02:19       0.704     0.000
  
  
  **********************
  Storage Volume Summary
  **********************
  
  --------------------------------------------------------------------------------------------------
                         Average     Avg  Evap Exfil       Maximum     Max    Time of Max    Maximum
                          Volume    Pcnt  Pcnt  Pcnt        Volume    Pcnt     Occurrence    Outflow
  Storage Unit           1000 m3    Full  Loss  Loss       1000 m3    Full    days hr:min        LPS
  --------------------------------------------------------------------------------------------------
  JK-storage               0.106      36     0     0         0.291     100       0  02:11     983.00
  CC-storage               3.128      20     0     0         3.842      24       0  03:44     399.86
  XR-storage               0.501      54     0     0         0.862      93       0  04:23     380.00
  
  
  ***********************
  Outfall Loading Summary
  ***********************
  
  ---------------------------------------------------------------------------------------------------------------------------------
                         Flow       Avg       Max       Total         Total         Total         Total         Total         Total
                         Freq      Flow      Flow      Volume           COD            SS            TN            TP         NH4-N
  Outfall Node           Pcnt       LPS       LPS    10^6 ltr            kg            kg            kg            kg            kg
  ---------------------------------------------------------------------------------------------------------------------------------
  WSC                   99.98    658.63    983.10      16.827      2126.972      3508.466       165.311        20.060       101.680
  ---------------------------------------------------------------------------------------------------------------------------------
  System                99.98    658.63    983.10      16.827      2126.972      3508.466       165.311        20.060       101.680
  
  
  ********************
  Link Flow Summary
  ********************
  
  -----------------------------------------------------------------------------
                                 Maximum  Time of Max   Maximum    Max/    Max/
                                  |Flow|   Occurrence   |Veloc|    Full    Full
  Link                 Type          LPS  days hr:min     m/sec    Flow   Depth
  -----------------------------------------------------------------------------
  WS02003066WSF200     CONDUIT    581.29     0  03:28      2.79    0.10    0.24
  WS02006287WS02006284 CONDUIT    211.51     0  02:09      1.64    0.10    0.22
  WS02006284WS02006280 CONDUIT    211.61     0  02:09      1.88    0.09    0.20
  WS02006280WS02006229 CONDUIT    211.61     0  02:09      3.02    0.05    0.14
  WS02006229WS02006228 CONDUIT    587.83     0  03:19      1.17    1.95    1.00
  WS02006256WS02006235 CONDUIT    288.92     0  00:00      4.23    3.06    1.00
  WS02006253WS02006251 CONDUIT     84.30     0  03:16      0.50    0.25    1.00
  WS02006252WS02006251 CONDUIT    400.61     0  03:20      3.19    1.47    1.00
  WS02006251WS02006249 CONDUIT    411.03     0  03:20      1.11    1.19    1.00
  WS02006249WS02006248 CONDUIT    363.56     0  05:50      1.14    1.99    1.00
  WS02006248WS02006247 CONDUIT    349.48     0  05:50      1.08    0.76    1.00
  WS02006247WS02006245 CONDUIT    330.81     0  05:50      1.02    2.62    1.00
  WS02006245WS02006243 CONDUIT    316.99     0  03:24      1.05    0.94    1.00
  WS02006243WS02006242 CONDUIT    316.96     0  03:24      0.94    0.68    1.00
  WS02006242WS02006240 CONDUIT    317.01     0  03:24      0.91    1.26    1.00
  WS02006240WS02006239 CONDUIT    317.38     0  03:24      0.98    1.00    1.00
  WS02006239WS02006238 CONDUIT    317.17     0  03:24      0.87    1.01    1.00
  WS02006238WS02006235 CONDUIT    317.58     0  03:24      1.45    0.71    1.00
  WS02006235WS02006234 CONDUIT    509.94     0  03:24      1.33    5.38    1.00
  WS02006234WS02006232 CONDUIT    509.35     0  03:24      1.39    1.03    1.00
  WS02006232WS02006231 CONDUIT    509.33     0  03:24      1.32    1.07    1.00
  WS02006231WS02006230 CONDUIT    509.34     0  03:24      1.41    7.73    1.00
  WS02006230WS02006229 CONDUIT    519.61     0  03:24      1.35   11.56    1.00
  WS02006228WS02006109 CONDUIT    587.74     0  03:19      1.17    2.57    1.00
  WS02006116WS02004401 CONDUIT    585.15     0  03:23      1.00    0.81    0.88
  WS02006115WS02006116 CONDUIT    586.54     0  03:23      1.02    0.75    0.80
  WS02006113WS02006111 CONDUIT    617.42     0  03:19      2.55    0.74    0.49
  WS02006112WS02006115 CONDUIT    597.73     0  03:20      0.82    0.35    0.89
  WS02006111WS02006112 CONDUIT    594.52     0  03:19      1.63    0.28    0.68
  WS02006110WS02006113 CONDUIT    589.38     0  03:19      1.37    0.54    0.80
  WS02006109WS02006110 CONDUIT    588.81     0  03:19      1.17    1.13    1.00
  WS02004411WS02004412 CONDUIT    581.47     0  03:27      0.96    0.83    0.72
  WS02004401WS02004402 CONDUIT    584.59     0  03:23      1.00    0.70    0.90
  WS02004413WS02003067 CONDUIT    581.23     0  03:28      1.16    0.25    0.61
  WS02004412WS02004413 CONDUIT    581.29     0  03:27      0.86    0.39    0.80
  WS02004410WS02004411 CONDUIT    581.55     0  03:27      0.97    0.79    0.71
  WS02004409WS02004410 CONDUIT    581.89     0  03:27      0.99    0.75    0.70
  WS02004407WS02004409 CONDUIT    583.35     0  03:24      1.50    0.21    0.50
  WS02004406WS02004407 CONDUIT    583.61     0  03:24      1.09    0.26    0.64
  WS02004405WS02004406 CONDUIT    583.92     0  03:24      1.10    1.15    0.98
  WS02004404WS02004405 CONDUIT    583.80     0  03:24      1.15    5.72    0.99
  WS02004403WS02004404 CONDUIT    583.81     0  03:24      0.98    0.42    0.96
  WS02004402WS02004403 CONDUIT    584.05     0  03:24      1.02    0.84    0.92
  WS02004139WS02001211 CONDUIT    381.68     0  04:00      0.90    0.48    0.60
  WS02004138WS02004139 CONDUIT    395.52     0  00:00      3.64    0.08    0.44
  WS02003067WS02003066 CONDUIT    581.28     0  03:28      1.26    0.19    0.43
  WS02001213WS02003059 CONDUIT    394.94     0  03:59      0.89    0.65    0.78
  WS02001212WS02001213 CONDUIT    392.22     0  03:59      1.32    0.61    0.48
  WS02001211WS02001212 CONDUIT    390.62     0  04:00      0.78    0.30    0.66
  WS02003072WS02003073 CONDUIT    981.39     0  03:30      1.75    2.12    0.50
  WS02003069WS02003072 CONDUIT    981.45     0  03:30      1.65    0.47    0.52
  WS02003060WS02003069 CONDUIT    981.29     0  03:29      1.89    0.38    0.47
  WS02003059WS02003060 CONDUIT    398.74     0  03:59      0.95    0.26    0.67
  HS02004901HS02004770 CONDUIT     10.06     0  01:36      0.07    0.04    0.32
  HS02004876HS02004881 CONDUIT     38.77     0  02:08      0.61    0.41    0.09
  HS02004870HS02004876 CONDUIT     31.06     0  02:08      0.43    0.02    0.10
  HS02004842HS02004848 CONDUIT      7.32     0  02:10      0.04    0.00    0.28
  HS02004837HS02004842 CONDUIT      7.42     0  02:12      0.42    0.00    0.29
  HS02004830HS02004837 CONDUIT     26.84     0  02:08      0.47    0.03    0.08
  HS02004824HS02004830 CONDUIT     26.99     0  02:09      0.49    0.04    0.08
  HS02004817HS02004824 CONDUIT     48.46     0  02:09      0.17    0.02    0.41
  HS02004770HS02004777 CONDUIT     51.98     0  01:35      0.24    0.10    0.33
  HS02004799HS02004480 CONDUIT    130.65     0  01:37      0.59    0.17    0.31
  HS02004792HS02004799 CONDUIT    119.17     0  01:37      0.68    0.07    0.25
  HS02004788HS02004792 CONDUIT     69.38     0  01:38      0.83    0.05    0.12
  HS02004785HS02004788 CONDUIT     51.88     0  01:38      0.51    0.39    0.14
  HS02004777HS02004785 CONDUIT     51.77     0  01:37      0.27    0.06    0.27
  HS02004480HS02004478 CONDUIT    154.63     0  01:38      0.96    0.65    0.23
  HS02004479HS02004480 CONDUIT     24.37     0  01:40      0.35    0.02    0.31
  HS02004862HS02004870 CONDUIT     23.48     0  02:08      0.50    0.03    0.07
  HS02004848HS02004852 CONDUIT     10.11     0  02:08      0.34    0.01    0.04
  HS02004856HS02004862 CONDUIT     15.79     0  02:08      0.36    0.02    0.06
  HS02004852HS02004856 CONDUIT     10.10     0  02:09      0.15    0.01    0.10
  HS02004802HS02004478 CONDUIT     63.02     0  02:11      0.35    0.06    0.26
  HS02004478WS02006287 CONDUIT    211.51     0  02:08      1.33    0.06    0.18
  HS02004817HS02004807 CONDUIT     49.16     0  02:11      0.13    0.03    0.53
  HS02004807HS02004802 CONDUIT     62.92     0  02:10      0.29    0.12    0.31
  YS02001759YS02001757 CONDUIT    425.76     0  02:29      0.54    0.30    1.00
  YS02001762YS02001759 CONDUIT    237.19     0  02:29      0.30    0.27    1.00
  YS02001765YS02001762 CONDUIT    232.69     0  02:29      0.31    0.22    1.00
  YS02001770YS02001767 CONDUIT    222.26     0  02:29      0.39    0.88    1.00
  YS02001774YS02001770 CONDUIT    163.27     0  03:07      0.31    0.10    1.00
  YS02001779YS02001774 CONDUIT    163.70     0  03:07      0.21    0.08    1.00
  YS02001649YS02001757 CONDUIT    630.26     0  02:27      0.80    0.38    1.00
  YS02001767YS02001765 CONDUIT    227.51     0  02:29      0.38    0.29    1.00
  YS02006561YS02001783 CONDUIT    678.11     0  02:57      2.13    0.35    0.73
  YS02001783YS02001784 CONDUIT    674.79     0  02:57      1.58    0.93    1.00
  YS02001784YS02001785 CONDUIT    676.30     0  02:30      1.71    1.57    1.00
  YS02001788YS02001790 CONDUIT    772.07     0  02:29      2.25    0.57    1.00
  YS02001790YS02001791 CONDUIT    811.83     0  02:30      2.69    0.88    1.00
  YS02001791YS02001793 CONDUIT    859.42     0  02:30      5.53    0.37    1.00
  YS02001910YS02001907 CONDUIT    245.02     0  02:56      0.49    0.14    0.92
  YS02001786YS02001788 CONDUIT    713.81     0  02:30      2.16    1.38    1.00
  YS02001915YS02001910 CONDUIT    245.13     0  02:58      0.62    0.12    0.72
  YS02001918YS02001915 CONDUIT     94.03     0  02:57      0.44    0.05    0.44
  YS02001923YS02001920 CONDUIT     76.85     0  03:01      0.61    0.03    0.23
  YS02001926YS02001923 CONDUIT     76.81     0  03:01      0.70    0.11    0.20
  YS02001929YS02001926 CONDUIT     76.80     0  03:01      0.75    0.04    0.19
  YS02001920YS02001918 CONDUIT     87.75     0  02:58      0.61    0.08    0.30
  YS02001629YS02163301 CONDUIT    168.28     0  02:32      0.21    0.21    1.00
  YS02001619YS02001622 CONDUIT    155.20     0  02:21      0.64    0.23    1.00
  YS02001622YS02001625 CONDUIT    187.31     0  02:17      0.42    0.10    1.00
  YS02001625YS02001629 CONDUIT    187.29     0  02:17      0.25    0.09    1.00
  YS02163301YS02001633 CONDUIT    171.55     0  02:32      0.22    0.16    1.00
  YS02163601YS02164001 CONDUIT    323.40     0  02:32      0.41    0.29    1.00
  YS02164001YS02001641 CONDUIT    322.02     0  02:32      0.41    0.44    1.00
  YS02001641YS02001644 CONDUIT    325.25     0  02:32      0.41    1.05    1.00
  YS02001647YS02001649 CONDUIT    475.97     0  02:32      0.61    0.25    1.00
  YS02006553YS02006556 CONDUIT    476.82     0  02:56      0.61    0.41    1.00
  YS02006556YS02006558 CONDUIT    494.85     0  02:55      0.63    0.39    1.00
  YSB6556YSB1171       CONDUIT     13.72     0  02:08      0.09    0.01    0.58
  YS02001907YS02006553 CONDUIT    474.35     0  02:56      0.53    0.56    1.00
  YS02006558YS02006561 CONDUIT    702.70     0  02:50      3.20    1.55    0.76
  YS02001633YS02163601 CONDUIT    322.33     0  02:32      0.41    0.34    1.00
  YS02001644YS02001647 CONDUIT    474.12     0  02:32      0.60    0.28    1.00
  YS02001745YS02001748 CONDUIT    359.97     0  02:34      1.46    0.14    0.94
  YS02001748YS02001751 CONDUIT    357.72     0  02:20      1.10    0.18    1.00
  YS02001751YS02001754 CONDUIT    196.21     0  02:17      0.95    0.09    1.00
  YS02001754YS02001757 CONDUIT    199.33     0  02:18      0.33    0.08    1.00
  YS02001882YS02001884 CONDUIT     13.56     0  02:22      0.15    0.02    0.66
  YS02001884YS02001887 CONDUIT     20.73     0  03:09      0.11    0.03    0.76
  YS02001890YS02001895 CONDUIT    251.29     0  02:35      0.42    0.12    0.73
  YS02001895YS02001898 CONDUIT    250.21     0  02:34      0.55    0.43    0.59
  YS02001898YS02001901 CONDUIT    252.00     0  02:35      0.46    0.16    0.67
  YS02001901YS02001904 CONDUIT    252.88     0  02:34      0.43    0.39    0.72
  YS02001904YS02001907 CONDUIT    255.08     0  02:33      0.36    0.09    0.85
  YS02001887YS02001890 CONDUIT    245.20     0  02:34      0.36    0.42    0.81
  YS02001652YS02001649 CONDUIT    241.54     0  02:27      0.68    0.12    1.00
  YS02001655YS02001652 CONDUIT    242.05     0  02:27      1.03    0.12    1.00
  YS02001658YS02001655 CONDUIT    351.16     0  02:18      1.27    0.15    1.00
  YS02001661YS02001658 CONDUIT    579.56     0  02:27      1.55    0.23    1.00
  YS02001664YS02001661 CONDUIT    543.64     0  02:46      1.40    0.17    0.72
  YSB1154YSB6556       CONDUIT     13.71     0  02:07      0.16    0.02    0.47
  YSB1174YSB1171       CONDUIT     11.35     0  01:35      0.06    0.02    0.58
  YSB1171HS02004479    CONDUIT     24.23     0  01:40      0.54    0.02    0.45
  HS02004881HS02006253 CONDUIT     42.78     0  02:08      1.73    0.01    0.51
  YS02001793JiankangQianchi CONDUIT    877.13     0  03:08     17.35    0.07    1.00
  YS02001757CaochengTiaoxuchi CONDUIT   1148.12     0  02:41      1.59    0.50    1.00
  WSF200WS02003060     CONDUIT    581.43     0  03:28      1.63    0.13    0.35
  1                    CONDUIT    983.10     0  03:31      3.31    0.34    0.40
  CC-Pump-1            PUMP       200.00     0  03:00              1.00
  CC-Pump-2            PUMP       199.86     0  03:20              1.00
  JK-Pump-1            PUMP       300.00     0  00:00              1.00
  JK-Pump-2            PUMP       683.00     0  02:30              1.00
  XR-Pump-1            PUMP        95.00     0  00:00              1.00
  XR-Pump-2            PUMP        95.00     0  00:00              1.00
  XR-Pump-3            PUMP        95.00     0  00:00              1.00
  XR-Pump-4            PUMP        95.00     0  00:00              1.00
  
  
  ***************************
  Flow Classification Summary
  ***************************
  
  -------------------------------------------------------------------------------------
                      Adjusted    ---------- Fraction of Time in Flow Class ---------- 
                       /Actual         Up    Down  Sub   Sup   Up    Down  Norm  Inlet 
  Conduit               Length    Dry  Dry   Dry   Crit  Crit  Crit  Crit  Ltd   Ctrl  
  -------------------------------------------------------------------------------------
  WS02003066WSF200        1.00   0.01  0.02  0.00  0.00  0.97  0.00  0.00  0.79  0.00
  WS02006287WS02006284    1.00   0.04  0.01  0.00  0.56  0.39  0.00  0.00  0.73  0.00
  WS02006284WS02006280    1.00   0.05  0.00  0.00  0.00  0.00  0.00  0.95  0.00  0.00
  WS02006280WS02006229    1.00   0.05  0.00  0.00  0.00  0.00  0.00  0.95  0.00  0.00
  WS02006229WS02006228    1.00   0.00  0.00  0.00  0.99  0.00  0.00  0.01  0.00  0.00
  WS02006256WS02006235    1.00   0.00  0.00  0.00  0.99  0.01  0.00  0.00  0.00  0.00
  WS02006253WS02006251    1.00   0.02  0.02  0.00  0.95  0.00  0.01  0.00  0.00  0.00
  WS02006252WS02006251    1.00   0.24  0.00  0.00  0.02  0.00  0.74  0.00  0.00  0.00
  WS02006251WS02006249    1.00   0.00  0.00  0.00  1.00  0.00  0.00  0.00  0.40  0.00
  WS02006249WS02006248    1.00   0.00  0.01  0.00  0.79  0.00  0.20  0.00  0.00  0.00
  WS02006248WS02006247    1.00   0.01  0.00  0.00  0.99  0.00  0.00  0.01  0.36  0.00
  WS02006247WS02006245    1.00   0.01  0.00  0.00  0.98  0.00  0.00  0.02  0.00  0.00
  WS02006245WS02006243    1.00   0.00  0.00  0.00  0.92  0.00  0.00  0.07  0.00  0.00
  WS02006243WS02006242    1.00   0.00  0.00  0.00  0.99  0.00  0.00  0.01  0.42  0.00
  WS02006242WS02006240    1.00   0.00  0.00  0.00  0.99  0.00  0.01  0.00  0.00  0.00
  WS02006240WS02006239    1.00   0.00  0.00  0.00  0.89  0.00  0.00  0.11  0.02  0.00
  WS02006239WS02006238    1.00   0.00  0.00  0.00  1.00  0.00  0.00  0.00  0.15  0.00
  WS02006238WS02006235    1.00   0.00  0.00  0.00  1.00  0.00  0.00  0.00  0.00  0.00
  WS02006235WS02006234    1.00   0.00  0.00  0.00  0.94  0.00  0.06  0.00  0.00  0.00
  WS02006234WS02006232    1.00   0.00  0.00  0.00  1.00  0.00  0.00  0.00  0.07  0.00
  WS02006232WS02006231    1.00   0.00  0.00  0.00  0.99  0.00  0.01  0.00  0.00  0.00
  WS02006231WS02006230    1.00   0.00  0.00  0.00  0.66  0.00  0.34  0.00  0.00  0.00
  WS02006230WS02006229    1.00   0.00  0.00  0.00  0.99  0.00  0.00  0.01  0.01  0.00
  WS02006228WS02006109    1.00   0.00  0.00  0.00  1.00  0.00  0.00  0.00  0.01  0.00
  WS02006116WS02004401    1.00   0.01  0.00  0.00  0.99  0.00  0.00  0.00  0.00  0.00
  WS02006115WS02006116    1.00   0.01  0.00  0.00  0.99  0.00  0.00  0.00  0.00  0.00
  WS02006113WS02006111    1.00   0.01  0.00  0.00  0.00  0.99  0.00  0.00  0.19  0.00
  WS02006112WS02006115    1.00   0.01  0.00  0.00  0.99  0.00  0.00  0.00  0.00  0.00
  WS02006111WS02006112    1.00   0.01  0.00  0.00  0.99  0.00  0.00  0.00  0.98  0.00
  WS02006110WS02006113    1.00   0.00  0.00  0.00  0.99  0.00  0.00  0.00  0.00  0.00
  WS02006109WS02006110    1.00   0.00  0.00  0.00  0.99  0.00  0.00  0.00  0.00  0.00
  WS02004411WS02004412    1.00   0.02  0.00  0.00  0.98  0.00  0.00  0.00  0.00  0.00
  WS02004401WS02004402    1.00   0.01  0.00  0.00  0.99  0.00  0.00  0.00  0.00  0.00
  WS02004413WS02003067    1.00   0.02  0.01  0.00  0.00  0.00  0.97  0.00  0.00  0.00
  WS02004412WS02004413    1.00   0.02  0.00  0.00  0.98  0.00  0.00  0.00  0.01  0.00
  WS02004410WS02004411    1.00   0.02  0.00  0.00  0.98  0.00  0.00  0.00  0.00  0.00
  WS02004409WS02004410    1.00   0.02  0.00  0.00  0.98  0.00  0.00  0.00  0.02  0.00
  WS02004407WS02004409    1.00   0.02  0.00  0.00  0.98  0.00  0.00  0.00  0.95  0.00
  WS02004406WS02004407    1.00   0.00  0.02  0.00  0.98  0.00  0.00  0.00  0.00  0.00
  WS02004405WS02004406    1.00   0.00  0.00  0.00  1.00  0.00  0.00  0.00  0.00  0.00
  WS02004404WS02004405    1.00   0.00  0.00  0.00  1.00  0.00  0.00  0.00  0.00  0.00
  WS02004403WS02004404    1.00   0.00  0.01  0.00  0.99  0.00  0.00  0.00  0.00  0.00
  WS02004402WS02004403    1.00   0.01  0.00  0.00  0.99  0.00  0.00  0.00  0.00  0.00
  WS02004139WS02001211    1.00   0.00  0.00  0.00  1.00  0.00  0.00  0.00  0.00  0.00
  WS02004138WS02004139    1.00   0.00  0.00  0.00  1.00  0.00  0.00  0.00  1.00  0.00
  WS02003067WS02003066    1.00   0.03  0.00  0.00  0.97  0.00  0.00  0.00  0.00  0.00
  WS02001213WS02003059    1.00   0.00  0.00  0.00  1.00  0.00  0.00  0.00  0.00  0.00
  WS02001212WS02001213    1.00   0.00  0.00  0.00  0.91  0.00  0.09  0.00  0.00  0.00
  WS02001211WS02001212    1.00   0.00  0.00  0.00  1.00  0.00  0.00  0.00  0.00  0.00
  WS02003072WS02003073    1.00   0.00  0.00  0.00  0.00  0.00  0.00  1.00  0.00  0.00
  WS02003069WS02003072    1.00   0.00  0.00  0.00  1.00  0.00  0.00  0.00  0.10  0.00
  WS02003060WS02003069    1.00   0.00  0.00  0.00  0.99  0.01  0.00  0.00  0.08  0.00
  WS02003059WS02003060    1.00   0.00  0.00  0.00  1.00  0.00  0.00  0.00  0.01  0.00
  HS02004901HS02004770    1.00   0.04  0.00  0.00  0.96  0.00  0.00  0.00  0.00  0.00
  HS02004876HS02004881    1.00   0.01  0.00  0.00  0.99  0.00  0.00  0.00  0.00  0.00
  HS02004870HS02004876    1.00   0.00  0.00  0.00  0.99  0.00  0.00  0.00  0.95  0.00
  HS02004842HS02004848    1.00   0.00  0.04  0.00  0.96  0.00  0.00  0.00  0.58  0.00
  HS02004837HS02004842    1.00   0.00  0.00  0.00  1.00  0.00  0.00  0.00  0.11  0.00
  HS02004830HS02004837    1.00   0.00  0.00  0.00  1.00  0.00  0.00  0.00  0.99  0.00
  HS02004824HS02004830    1.00   0.00  0.00  0.00  1.00  0.00  0.00  0.00  0.00  0.00
  HS02004817HS02004824    1.00   0.00  0.00  0.00  1.00  0.00  0.00  0.00  1.00  0.00
  HS02004770HS02004777    1.00   0.00  0.04  0.00  0.96  0.00  0.00  0.00  0.02  0.00
  HS02004799HS02004480    1.00   0.00  0.02  0.00  0.95  0.00  0.03  0.00  0.00  0.00
  HS02004792HS02004799    1.00   0.00  0.00  0.00  0.99  0.01  0.00  0.00  0.98  0.00
  HS02004788HS02004792    1.00   0.00  0.00  0.00  1.00  0.00  0.00  0.00  0.98  0.00
  HS02004785HS02004788    1.00   0.00  0.00  0.00  1.00  0.00  0.00  0.00  0.00  0.00
  HS02004777HS02004785    1.00   0.00  0.00  0.00  1.00  0.00  0.00  0.00  0.11  0.00
  HS02004480HS02004478    1.00   0.04  0.00  0.00  0.61  0.00  0.00  0.35  0.00  0.00
  HS02004479HS02004480    1.00   0.02  0.00  0.00  0.98  0.00  0.00  0.00  0.11  0.00
  HS02004862HS02004870    1.00   0.00  0.00  0.00  1.00  0.00  0.00  0.00  0.03  0.00
  HS02004848HS02004852    1.00   0.04  0.00  0.00  0.96  0.00  0.00  0.00  0.79  0.00
  HS02004856HS02004862    1.00   0.00  0.05  0.00  0.95  0.00  0.00  0.00  0.84  0.00
  HS02004852HS02004856    1.00   0.04  0.00  0.00  0.95  0.00  0.00  0.00  0.86  0.00
  HS02004802HS02004478    1.00   0.04  0.00  0.00  0.95  0.00  0.00  0.00  0.02  0.00
  HS02004478WS02006287    1.00   0.05  0.00  0.00  0.75  0.20  0.00  0.00  0.72  0.00
  HS02004817HS02004807    1.00   0.00  0.04  0.00  0.96  0.00  0.00  0.00  0.01  0.00
  HS02004807HS02004802    1.00   0.04  0.00  0.00  0.95  0.00  0.00  0.00  0.00  0.00
  YS02001759YS02001757    1.00   0.00  0.00  0.00  1.00  0.00  0.00  0.00  0.15  0.00
  YS02001762YS02001759    1.00   0.00  0.00  0.00  1.00  0.00  0.00  0.00  0.02  0.00
  YS02001765YS02001762    1.00   0.00  0.00  0.00  1.00  0.00  0.00  0.00  0.13  0.00
  YS02001770YS02001767    1.00   0.00  0.00  0.00  1.00  0.00  0.00  0.00  0.00  0.00
  YS02001774YS02001770    1.00   0.00  0.04  0.00  0.96  0.00  0.00  0.00  0.02  0.00
  YS02001779YS02001774    1.00   0.00  0.00  0.00  1.00  0.00  0.00  0.00  0.17  0.00
  YS02001649YS02001757    1.00   0.00  0.00  0.00  1.00  0.00  0.00  0.00  0.15  0.00
  YS02001767YS02001765    1.00   0.00  0.00  0.00  1.00  0.00  0.00  0.00  0.00  0.00
  YS02006561YS02001783    1.00   0.06  0.00  0.00  0.10  0.84  0.00  0.00  0.60  0.00
  YS02001783YS02001784    1.00   0.00  0.06  0.00  0.94  0.00  0.00  0.00  0.00  0.00
  YS02001784YS02001785    1.00   0.00  0.00  0.00  1.00  0.00  0.00  0.00  0.16  0.00
  YS02001788YS02001790    1.00   0.00  0.00  0.00  0.18  0.82  0.00  0.00  0.55  0.00
  YS02001790YS02001791    1.00   0.00  0.00  0.00  0.16  0.84  0.00  0.00  0.63  0.00
  YS02001791YS02001793    1.00   0.00  0.00  0.00  0.22  0.78  0.00  0.00  0.06  0.00
  YS02001910YS02001907    1.00   0.00  0.00  0.00  0.99  0.00  0.00  0.01  0.12  0.00
  YS02001786YS02001788    1.00   0.00  0.00  0.00  0.17  0.83  0.00  0.00  0.00  0.00
  YS02001915YS02001910    1.00   0.00  0.00  0.00  0.99  0.01  0.00  0.00  0.14  0.00
  YS02001918YS02001915    1.00   0.00  0.00  0.00  0.99  0.01  0.00  0.00  0.62  0.00
  YS02001923YS02001920    1.00   0.00  0.00  0.00  1.00  0.00  0.00  0.00  1.00  0.00
  YS02001926YS02001923    1.00   0.00  0.03  0.00  0.00  0.00  0.97  0.00  0.00  0.00
  YS02001929YS02001926    1.00   0.00  0.04  0.00  0.96  0.00  0.00  0.00  0.87  0.00
  YS02001920YS02001918    1.00   0.00  0.00  0.00  1.00  0.00  0.00  0.00  0.00  0.00
  YS02001629YS02163301    1.00   0.05  0.00  0.00  0.95  0.00  0.00  0.00  0.00  0.00
  YS02001619YS02001622    1.00   0.04  0.00  0.00  0.96  0.00  0.00  0.00  0.00  0.00
  YS02001622YS02001625    1.00   0.04  0.00  0.00  0.96  0.00  0.00  0.00  0.03  0.00
  YS02001625YS02001629    1.00   0.04  0.01  0.00  0.92  0.00  0.02  0.00  0.00  0.00
  YS02163301YS02001633    1.00   0.00  0.05  0.00  0.95  0.00  0.00  0.00  0.00  0.00
  YS02163601YS02164001    1.00   0.00  0.03  0.00  0.97  0.00  0.00  0.00  0.00  0.00
  YS02164001YS02001641    1.00   0.00  0.03  0.00  0.97  0.00  0.00  0.00  0.06  0.00
  YS02001641YS02001644    1.00   0.00  0.00  0.00  1.00  0.00  0.00  0.00  0.00  0.00
  YS02001647YS02001649    1.00   0.00  0.05  0.00  0.95  0.00  0.00  0.00  0.01  0.00
  YS02006553YS02006556    1.00   0.01  0.00  0.00  0.99  0.00  0.00  0.00  0.03  0.00
  YS02006556YS02006558    1.00   0.00  0.00  0.00  1.00  0.00  0.00  0.00  0.00  0.00
  YSB6556YSB1171          1.00   0.02  0.02  0.00  0.96  0.00  0.00  0.00  0.00  0.00
  YS02001907YS02006553    1.00   0.00  0.01  0.00  0.99  0.00  0.00  0.00  0.00  0.00
  YS02006558YS02006561    1.00   0.06  0.00  0.00  0.00  0.94  0.00  0.00  0.61  0.00
  YS02001633YS02163601    1.00   0.00  0.00  0.00  1.00  0.00  0.00  0.00  0.15  0.00
  YS02001644YS02001647    1.00   0.00  0.05  0.00  0.95  0.00  0.00  0.00  0.00  0.00
  YS02001745YS02001748    1.00   0.00  0.00  0.00  0.90  0.01  0.00  0.09  0.05  0.00
  YS02001748YS02001751    1.00   0.00  0.00  0.00  0.97  0.03  0.00  0.00  0.15  0.00
  YS02001751YS02001754    1.00   0.00  0.00  0.00  0.94  0.00  0.00  0.06  0.02  0.00
  YS02001754YS02001757    1.00   0.00  0.00  0.00  1.00  0.00  0.00  0.00  0.17  0.00
  YS02001882YS02001884    1.00   0.05  0.00  0.00  0.95  0.00  0.00  0.00  0.00  0.00
  YS02001884YS02001887    1.00   0.02  0.02  0.00  0.96  0.00  0.00  0.00  0.00  0.00
  YS02001890YS02001895    1.00   0.00  0.05  0.00  0.95  0.00  0.00  0.00  0.00  0.00
  YS02001895YS02001898    1.00   0.05  0.00  0.00  0.94  0.00  0.01  0.00  0.00  0.00
  YS02001898YS02001901    1.00   0.05  0.00  0.00  0.95  0.00  0.00  0.00  0.01  0.00
  YS02001901YS02001904    1.00   0.05  0.00  0.00  0.95  0.00  0.00  0.00  0.00  0.00
  YS02001904YS02001907    1.00   0.00  0.05  0.00  0.95  0.00  0.00  0.00  0.00  0.00
  YS02001887YS02001890    1.00   0.00  0.00  0.00  0.99  0.00  0.01  0.00  0.00  0.00
  YS02001652YS02001649    1.00   0.00  0.00  0.00  1.00  0.00  0.00  0.00  0.15  0.00
  YS02001655YS02001652    1.00   0.00  0.00  0.00  0.94  0.00  0.00  0.06  0.02  0.00
  YS02001658YS02001655    1.00   0.00  0.05  0.00  0.92  0.03  0.00  0.00  0.06  0.00
  YS02001661YS02001658    1.00   0.05  0.00  0.00  0.90  0.05  0.00  0.00  0.07  0.00
  YS02001664YS02001661    1.00   0.04  0.00  0.00  0.90  0.06  0.00  0.00  0.20  0.00
  YSB1154YSB6556          1.00   0.04  0.00  0.00  0.96  0.00  0.00  0.00  0.01  0.00
  YSB1174YSB1171          1.00   0.02  0.01  0.00  0.97  0.00  0.00  0.00  0.00  0.00
  YSB1171HS02004479       1.00   0.02  0.00  0.00  0.98  0.00  0.00  0.00  0.10  0.00
  HS02004881HS02006253    1.00   0.02  0.00  0.00  0.44  0.02  0.00  0.53  0.24  0.00
  YS02001793JiankangQianchi    1.00   0.00  0.00  0.00  0.62  0.37  0.00  0.00  0.52  0.00
  YS02001757CaochengTiaoxuchi    1.00   0.00  0.07  0.00  0.93  0.00  0.00  0.00  0.00  0.00
  WSF200WS02003060        1.00   0.00  0.01  0.00  0.99  0.00  0.00  0.00  0.63  0.00
  1                       1.00   0.00  0.00  0.00  0.00  1.00  0.00  0.00  0.54  0.00
  
  
  *************************
  Conduit Surcharge Summary
  *************************
  
  ----------------------------------------------------------------------------
                                                           Hours        Hours 
                         --------- Hours Full --------   Above Full   Capacity
  Conduit                Both Ends  Upstream  Dnstream   Normal Flow   Limited
  ----------------------------------------------------------------------------
  WS02006229WS02006228        2.16      2.30      2.16      3.34         2.16
  WS02006256WS02006235        4.57      4.58      6.64      3.88         0.01
  WS02006253WS02006251        0.23      0.23      0.27      0.01         0.01
  WS02006252WS02006251        0.18      0.18      0.38      0.32         0.01
  WS02006251WS02006249        0.24      0.24      0.28      0.12         0.08
  WS02006249WS02006248        0.25      0.25      0.28      1.30         0.01
  WS02006248WS02006247        0.27      0.27      0.35      0.01         0.01
  WS02006247WS02006245        0.35      0.36      0.35      1.83         0.34
  WS02006245WS02006243        0.36      0.36      0.40      0.01         0.02
  WS02006243WS02006242        0.41      0.41      0.73      0.01         0.01
  WS02006242WS02006240        0.53      0.53      0.96      0.32         0.01
  WS02006240WS02006239        0.63      0.63      0.88      0.01         0.08
  WS02006239WS02006238        1.14      1.14      1.34      0.10         0.08
  WS02006238WS02006235        1.32      1.32      1.48      0.01         0.01
  WS02006235WS02006234        0.89      0.90      1.23      4.43         0.01
  WS02006234WS02006232        1.08      1.08      1.57      0.15         0.13
  WS02006232WS02006231        0.30      0.30      1.57      0.19         0.01
  WS02006231WS02006230        0.19      0.19      0.34      4.67         0.01
  WS02006230WS02006229        2.82      3.14      2.82      5.17         2.82
  WS02006228WS02006109        2.24      2.54      2.24      3.94         2.24
  WS02006112WS02006115        0.01      0.01      0.44      0.01         0.01
  WS02006111WS02006112        0.01      0.01      3.43      0.01         0.01
  WS02006110WS02006113        0.01      0.01      2.40      0.01         0.01
  WS02006109WS02006110        0.23      0.23      2.54      0.24         0.01
  WS02004405WS02004406        0.01      0.01      0.01      0.28         0.01
  WS02004404WS02004405        0.01      0.01      0.01      4.93         0.01
  WS02003072WS02003073        0.01      0.01      0.01      5.40         0.01
  YS02001759YS02001757        5.99      5.99      6.08      0.01         0.01
  YS02001762YS02001759        5.97      5.97      5.99      0.01         0.01
  YS02001765YS02001762        5.93      5.93      5.97      0.01         0.01
  YS02001770YS02001767        5.90      5.90      5.91      0.01         0.65
  YS02001774YS02001770        5.89      5.89      5.96      0.01         0.01
  YS02001779YS02001774        5.73      5.73      5.96      0.01         0.01
  YS02001649YS02001757        5.97      5.97      6.08      0.01         0.01
  YS02001767YS02001765        5.91      5.91      5.93      0.01         0.01
  YS02006561YS02001783        0.01      0.01      0.21      0.01         0.01
  YS02001783YS02001784        0.21      0.21      0.29      0.01         0.01
  YS02001784YS02001785        0.20      0.29      0.20      1.63         0.19
  YS02001788YS02001790        0.16      0.16      0.78      0.01         0.01
  YS02001790YS02001791        0.78      0.78      0.84      0.01         0.01
  YS02001791YS02001793        0.84      0.84      1.27      0.01         0.01
  YS02001910YS02001907        0.01      0.01      0.93      0.01         0.01
  YS02001786YS02001788        0.16      0.20      0.16      1.12         0.15
  YS02001629YS02163301        5.88      5.88      5.90      0.01         0.01
  YS02001619YS02001622        5.42      5.42      5.47      0.01         0.01
  YS02001622YS02001625        5.47      5.47      5.84      0.01         0.01
  YS02001625YS02001629        5.43      5.43      5.84      0.01         0.01
  YS02163301YS02001633        5.90      5.90      5.94      0.01         0.01
  YS02163601YS02164001        5.93      5.93      5.97      0.01         0.01
  YS02164001YS02001641        5.93      5.93      5.94      0.01         0.01
  YS02001641YS02001644        5.94      5.94      5.95      0.02         0.86
  YS02001647YS02001649        5.82      5.82      5.97      0.01         0.01
  YS02006553YS02006556        0.01      0.01      1.05      0.01         0.01
  YS02006556YS02006558        0.21      0.21      1.17      0.01         0.01
  YS02001907YS02006553        1.67      1.67      1.91      0.01         0.01
  YS02006558YS02006561        0.01      0.01      0.01      1.49         0.01
  YS02001633YS02163601        5.92      5.92      5.97      0.01         0.01
  YS02001644YS02001647        5.82      5.82      5.95      0.01         0.01
  YS02001745YS02001748        0.01      0.01      5.21      0.01         0.01
  YS02001748YS02001751        5.26      5.26      5.44      0.01         0.01
  YS02001751YS02001754        5.44      5.44      5.75      0.01         0.01
  YS02001754YS02001757        5.81      5.81      6.08      0.01         0.01
  YS02001904YS02001907        0.01      0.01      1.08      0.01         0.01
  YS02001652YS02001649        5.83      5.83      5.97      0.01         0.01
  YS02001655YS02001652        5.47      5.47      5.80      0.01         0.01
  YS02001658YS02001655        5.23      5.23      5.47      0.01         0.01
  YS02001661YS02001658        0.09      0.09      5.23      0.01         0.01
  YS02001664YS02001661        0.01      0.01      0.50      0.01         0.01
  HS02004881HS02006253        0.01      0.01      0.13      0.01         0.01
  YS02001793JiankangQianchi        1.05      1.05      3.96      0.01         0.01
  YS02001757CaochengTiaoxuchi        5.20      5.20      6.08      0.01         0.01
  
  
  ***************
  Pumping Summary
  ***************
  
  ---------------------------------------------------------------------------------------------------------
                                                  Min       Avg       Max     Total     Power    % Time Off
                        Percent   Number of      Flow      Flow      Flow    Volume     Usage    Pump Curve
  Pump                 Utilized   Start-Ups       LPS       LPS       LPS  10^6 ltr     Kw-hr    Low   High
  ---------------------------------------------------------------------------------------------------------
  CC-Pump-1               36.14           4      0.00    147.66    200.00     1.380      0.97    0.0    0.0
  CC-Pump-2                8.51           2      0.00     93.92    199.86     0.240      0.27    0.0    0.0
  JK-Pump-1               55.31           6      0.00    208.62    300.00     3.033     54.93    0.0    0.0
  JK-Pump-2               42.54           5      0.00    344.70    683.00     4.084     71.22    0.0   93.8
  XR-Pump-1              100.00           1      0.00     95.00     95.00     2.679     39.24    0.0    0.0
  XR-Pump-2               97.87           2      0.00     93.08     95.00     2.508     35.62    0.0    0.0
  XR-Pump-3               95.74           3      0.00     93.34     95.00     2.451     34.37    0.0    0.0
  XR-Pump-4               95.74           3      0.00     93.34     95.00     2.451     34.37    0.0    0.0
  
  
  ***************************
  Link Pollutant Load Summary
  ***************************
  
  ------------------------------------------------------------------------------------------
                                 COD            SS            TN            TP         NH4-N
  Link                            kg            kg            kg            kg            kg
  ------------------------------------------------------------------------------------------
  WS02003066WSF200           440.551       781.410        14.116         1.352         7.750
  WS02006287WS02006284       174.328       309.849         7.544         0.811         4.352
  WS02006284WS02006280       174.848       310.681         7.592         0.818         4.382
  WS02006280WS02006229       174.820       310.633         7.590         0.817         4.381
  WS02006229WS02006228       455.096       804.940        14.259         1.346         7.787
  WS02006256WS02006235       146.811       254.910         3.858         0.328         2.032
  WS02006253WS02006251        29.936        55.790         0.702         0.054         0.352
  WS02006252WS02006251       125.735       222.264         2.659         0.191         1.305
  WS02006251WS02006249       150.633       269.199         3.258         0.238         1.608
  WS02006249WS02006248       147.535       263.708         3.191         0.233         1.574
  WS02006248WS02006247       147.131       263.017         3.182         0.232         1.570
  WS02006247WS02006245       146.464       261.837         3.167         0.231         1.563
  WS02006245WS02006243       145.724       260.553         3.151         0.230         1.554
  WS02006243WS02006242       145.664       260.434         3.155         0.231         1.557
  WS02006242WS02006240       146.830       262.385         3.189         0.234         1.575
  WS02006240WS02006239       148.944       265.965         3.249         0.239         1.608
  WS02006239WS02006238       152.237       271.314         3.361         0.250         1.670
  WS02006238WS02006235       154.650       275.233         3.436         0.257         1.711
  WS02006235WS02006234       285.661       503.301         6.851         0.546         3.507
  WS02006234WS02006232       285.009       502.192         6.834         0.545         3.498
  WS02006232WS02006231       283.841       500.240         6.796         0.541         3.477
  WS02006231WS02006230       282.866       498.670         6.762         0.538         3.459
  WS02006230WS02006229       281.532       496.414         6.721         0.534         3.436
  WS02006228WS02006109       454.007       803.154        14.218         1.342         7.764
  WS02006116WS02004401       458.011       810.107        14.754         1.414         8.106
  WS02006115WS02006116       459.677       812.857        14.813         1.420         8.139
  WS02006113WS02006111       458.749       810.531        14.880         1.428         8.186
  WS02006112WS02006115       461.671       816.178        14.896         1.428         8.187
  WS02006111WS02006112       457.964       809.229        14.849         1.425         8.169
  WS02006110WS02006113       459.767       812.224        14.925         1.433         8.212
  WS02006109WS02006110       461.505       815.106        15.002         1.441         8.257
  WS02004411WS02004412       445.594       789.710        14.350         1.377         7.885
  WS02004401WS02004402       456.159       807.032        14.680         1.406         8.064
  WS02004413WS02003067       441.481       782.906        14.154         1.356         7.771
  WS02004412WS02004413       443.792       786.763        14.273         1.369         7.841
  WS02004410WS02004411       447.049       792.074        14.409         1.383         7.919
  WS02004409WS02004410       448.575       794.570        14.473         1.389         7.956
  WS02004407WS02004409       449.733       796.438        14.515         1.393         7.979
  WS02004406WS02004407       449.935       796.726        14.516         1.393         7.979
  WS02004405WS02004406       452.095       800.287        14.613         1.403         8.035
  WS02004404WS02004405       453.243       802.144        14.629         1.404         8.041
  WS02004403WS02004404       453.100       801.970        14.560         1.394         7.996
  WS02004402WS02004403       454.622       804.498        14.623         1.401         8.032
  WS02004139WS02001211      1550.802      2510.888       137.604        17.000        85.411
  WS02004138WS02004139      1551.152      2511.478       137.623        17.002        85.422
  WS02003067WS02003066       440.830       781.870        14.131         1.353         7.758
  WS02001213WS02003059      1587.178      2568.907       141.178        17.448        87.649
  WS02001212WS02001213      1595.982      2583.111       141.972        17.547        88.142
  WS02001211WS02001212      1597.739      2585.934       142.134        17.567        88.243
  WS02003072WS02003073      2123.895      3503.801       164.823        19.996       101.366
  WS02003069WS02003072      2129.833      3513.407       165.331        20.058       101.681
  WS02003060WS02003069      2133.699      3519.711       165.610        20.092       101.851
  WS02003059WS02003060      1583.568      2563.057       140.865        17.410        87.455
  HS02004901HS02004770         5.605        10.252         0.108         0.008         0.050
  HS02004876HS02004881        21.677        40.611         0.537         0.042         0.271
  HS02004870HS02004876        16.424        30.657         0.445         0.036         0.228
  HS02004842HS02004848         3.323         6.017         0.072         0.005         0.033
  HS02004837HS02004842         7.960        13.392         0.542         0.064         0.328
  HS02004830HS02004837        56.210        93.567         4.380         0.533         2.700
  HS02004824HS02004830        56.961        94.769         4.452         0.542         2.745
  HS02004817HS02004824        69.640       118.835         4.724         0.559         2.878
  HS02004770HS02004777        21.631        40.009         0.464         0.031         0.212
  HS02004799HS02004480        78.580       140.484         2.663         0.261         1.454
  HS02004792HS02004799        71.667       126.992         2.581         0.260         1.424
  HS02004788HS02004792        43.533        77.093         1.895         0.200         1.078
  HS02004785HS02004788        23.045        42.264         0.612         0.049         0.305
  HS02004777HS02004785        22.378        41.193         0.551         0.042         0.267
  HS02004480HS02004478        98.010       177.188         2.952         0.280         1.584
  HS02004479HS02004480        23.031        42.487         0.603         0.057         0.324
  HS02004862HS02004870        12.184        22.316         0.360         0.031         0.188
  HS02004848HS02004852         4.178         7.604         0.090         0.006         0.041
  HS02004856HS02004862         7.680        14.404         0.158         0.010         0.074
  HS02004852HS02004856         4.189         7.624         0.090         0.006         0.041
  HS02004802HS02004478        77.247       134.177         4.657         0.540         2.808
  HS02004478WS02006287       174.524       310.167         7.562         0.814         4.363
  HS02004817HS02004807        68.231       116.593         4.583         0.542         2.789
  HS02004807HS02004802        77.435       134.468         4.689         0.544         2.828
  YS02001759YS02001757       246.594       435.496         5.130         0.354         2.520
  YS02001762YS02001759       114.485       203.574         2.604         0.185         1.304
  YS02001765YS02001762       114.163       203.024         2.619         0.187         1.314
  YS02001770YS02001767       111.860       199.284         2.328         0.148         1.129
  YS02001774YS02001770        35.130        63.132         0.722         0.046         0.350
  YS02001779YS02001774        34.579        61.996         0.825         0.062         0.420
  YS02001649YS02001757       273.734       471.767         5.721         0.398         2.763
  YS02001767YS02001765       114.288       203.187         2.635         0.188         1.324
  YS02006561YS02001783       553.365       971.747        12.737         0.995         6.482
  YS02001783YS02001784       553.317       971.691        12.734         0.995         6.480
  YS02001784YS02001785       560.682       983.492        13.447         1.084         6.925
  YS02001788YS02001790       561.354       984.595        13.520         1.093         6.972
  YS02001790YS02001791       562.428       986.340        13.621         1.106         7.035
  YS02001791YS02001793       562.332       986.192        13.615         1.105         7.031
  YS02001910YS02001907       186.520       322.653         5.456         0.462         2.915
  YS02001786YS02001788       560.939       983.921        13.476         1.088         6.944
  YS02001915YS02001910       186.562       322.692         5.417         0.457         2.889
  YS02001918YS02001915        90.670       149.958         3.362         0.342         1.907
  YS02001923YS02001920        70.763       118.163         1.416         0.098         0.690
  YS02001926YS02001923        70.420       117.618         1.378         0.093         0.666
  YS02001929YS02001926        70.184       117.230         1.346         0.089         0.646
  YS02001920YS02001918        90.665       150.007         3.335         0.338         1.889
  YS02001629YS02163301        75.973       130.661         1.625         0.103         0.754
  YS02001619YS02001622        79.183       135.666         1.701         0.108         0.789
  YS02001622YS02001625        78.144       134.064         1.676         0.106         0.777
  YS02001625YS02001629        76.955       132.275         1.647         0.104         0.764
  YS02163301YS02001633        75.975       130.676         1.623         0.103         0.754
  YS02163601YS02164001       212.932       364.329         4.355         0.304         2.083
  YS02164001YS02001641       212.584       363.760         4.338         0.302         2.073
  YS02001641YS02001644       213.017       364.450         4.340         0.302         2.073
  YS02001647YS02001649       257.807       443.285         5.369         0.372         2.593
  YS02006553YS02006556       399.550       699.444         9.472         0.763         4.881
  YS02006556YS02006558       399.661       699.644         9.439         0.758         4.859
  YSB6556YSB1171              12.954        24.055         0.286         0.025         0.148
  YS02001907YS02006553       399.580       699.511         9.494         0.766         4.896
  YS02006558YS02006561       553.397       971.796        12.738         0.995         6.482
  YS02001633YS02163601       213.556       365.268         4.334         0.300         2.066
  YS02001644YS02001647       262.019       450.739         5.428         0.376         2.619
  YS02001745YS02001748       113.216       199.066         2.558         0.170         1.264
  YS02001748YS02001751       113.527       199.333         2.728         0.194         1.377
  YS02001751YS02001754       112.677       197.978         2.713         0.193         1.370
  YS02001754YS02001757       113.507       199.269         2.877         0.216         1.476
  YS02001882YS02001884         2.571         4.360         0.052         0.004         0.026
  YS02001884YS02001887         5.019         8.633         0.101         0.008         0.050
  YS02001890YS02001895       214.261       378.643         4.065         0.306         1.995
  YS02001895YS02001898       214.092       378.397         4.059         0.305         1.991
  YS02001898YS02001901       213.982       378.241         4.056         0.305         1.989
  YS02001901YS02001904       213.889       378.127         4.064         0.306         1.995
  YS02001904YS02001907       214.218       378.680         4.118         0.313         2.030
  YS02001887YS02001890       215.076       379.895         4.119         0.312         2.028
  YS02001652YS02001649        71.682       124.088         1.560         0.112         0.732
  YS02001655YS02001652        72.611       125.557         1.585         0.114         0.744
  YS02001658YS02001655        72.411       125.191         1.506         0.103         0.692
  YS02001661YS02001658        77.992       134.985         1.621         0.111         0.744
  YS02001664YS02001661        93.059       160.646         1.942         0.133         0.891
  YSB1154YSB6556              12.538        23.388         0.239         0.019         0.119
  YSB1174YSB1171               8.561        15.998         0.185         0.016         0.095
  YSB1171HS02004479           22.970        42.381         0.607         0.058         0.328
  HS02004881HS02006253        24.507        46.082         0.588         0.045         0.295
  YS02001793JiankangQianchi       563.638       988.345        13.661         1.109         7.056
  YS02001757CaochengTiaoxuchi       420.852       740.239         8.931         0.636         4.378
  WSF200WS02003060           440.125       780.733        14.103         1.351         7.743
  1                         2126.972      3508.466       165.311        20.060       101.680
  CC-Pump-1                  106.548       188.339         2.240         0.160         1.097
  CC-Pump-2                   18.841        33.371         0.394         0.028         0.193
  JK-Pump-1                  145.987       254.250         3.786         0.320         1.988
  JK-Pump-2                  238.241       421.901         5.547         0.441         2.839
  XR-Pump-1                  422.741       683.793        37.757         4.669        23.449
  XR-Pump-2                  384.807       623.100        34.120         4.215        21.177
  XR-Pump-3                  371.852       602.375        32.878         4.060        20.401
  XR-Pump-4                  371.852       602.375        32.878         4.060        20.401
  

  Analysis begun on:  Sat Jul 10 15:21:20 2021
  Analysis ended on:  Sat Jul 10 15:21:22 2021
  Total elapsed time: 00:00:02