
  EPA STORM WATER MANAGEMENT MODEL - VERSION 5.1 (Build 5.3.0.dev0)
  --------------------------------------------------------------

  WARNING 04: minimum elevation drop used for Conduit WS02004404WS02004405
  WARNING 03: negative offset ignored for Link YS02001904YS02001907
  
  *********************************************************
  NOTE: The summary statistics displayed in this report are
  based on results found at every computational time step,  
  not just on results from each reporting time step.
  *********************************************************
  
  ****************
  Analysis Options
  ****************
  Flow Units ............... LPS
  Process Models:
    Rainfall/Runoff ........ YES
    RDII ................... NO
    Snowmelt ............... NO
    Groundwater ............ NO
    Flow Routing ........... YES
    Ponding Allowed ........ NO
    Water Quality .......... YES
  Infiltration Method ...... HORTON
  Flow Routing Method ...... DYNWAVE
  Surcharge Method ......... EXTRAN
  Starting Date ............ 08/28/2015 08:00:00
  Ending Date .............. 08/28/2015 15:50:00
  Antecedent Dry Days ...... 8.0
  Report Time Step ......... 00:01:00
  Wet Time Step ............ 00:01:00
  Dry Time Step ............ 00:01:00
  Routing Time Step ........ 5.00 sec
  Variable Time Step ....... YES
  Maximum Trials ........... 8
  Number of Threads ........ 4
  Head Tolerance ........... 0.001500 m
  
  
  **************************        Volume         Depth
  Runoff Quantity Continuity     hectare-m            mm
  **************************     ---------       -------
  Total Precipitation ......         3.640         7.970
  Evaporation Loss .........         0.000         0.000
  Infiltration Loss ........         0.733         1.605
  Surface Runoff ...........         2.260         4.949
  Final Storage ............         0.648         1.418
  Continuity Error (%) .....        -0.020
  
  
  **************************           COD            SS            TN            TP         NH4-N
  Runoff Quality Continuity             kg            kg            kg            kg            kg
  **************************    ----------    ----------    ----------    ----------    ----------
  Initial Buildup ..........     41378.656     70582.865      1804.177       168.684      1032.807
  Surface Buildup ..........        13.981        21.011         2.244         0.207         1.321
  Wet Deposition ...........         0.000         0.000         0.000         0.000         0.000
  Sweeping Removal .........         0.000         0.000         0.000         0.000         0.000
  Infiltration Loss ........        43.987        78.805         0.854         0.058         0.403
  BMP Removal ..............         0.000         0.000         0.000         0.000         0.000
  Surface Runoff ...........      1510.361      2635.242        30.119         1.979        14.225
  Remaining Buildup ........     39837.856     67889.075      1775.439       166.853      1019.497
  Continuity Error (%) .....         0.001         0.001         0.000         0.000         0.000
  
  
  **************************        Volume        Volume
  Flow Routing Continuity        hectare-m      10^6 ltr
  **************************     ---------     ---------
  Dry Weather Inflow .......         0.616         6.165
  Wet Weather Inflow .......         2.259        22.594
  Groundwater Inflow .......         0.000         0.000
  RDII Inflow ..............         0.000         0.000
  External Inflow ..........         0.102         1.024
  External Outflow .........         1.751        17.512
  Flooding Loss ............         0.838         8.378
  Evaporation Loss .........         0.000         0.000
  Exfiltration Loss ........         0.000         0.000
  Initial Stored Volume ....         0.076         0.761
  Final Stored Volume ......         0.575         5.754
  Continuity Error (%) .....        -3.604
  
  
  **************************           COD            SS            TN            TP         NH4-N
  Quality Routing Continuity            kg            kg            kg            kg            kg
  **************************    ----------    ----------    ----------    ----------    ----------
  Dry Weather Inflow .......      1541.201      2465.922       147.955        18.494        92.472
  Wet Weather Inflow .......      1509.897      2634.484        30.109         1.978        14.220
  Groundwater Inflow .......         0.000         0.000         0.000         0.000         0.000
  RDII Inflow ..............         0.000         0.000         0.000         0.000         0.000
  External Inflow ..........       183.418       293.469        17.608         2.201        11.005
  External Outflow .........      2115.315      3486.120       160.662        19.419        98.641
  Flooding Loss ............       537.276       930.434        11.997         0.910         5.998
  Exfiltration Loss ........         0.000         0.000         0.000         0.000         0.000
  Mass Reacted .............         0.000         0.000         0.000         0.000         0.000
  Initial Stored Mass ......         0.000         0.000         0.000         0.000         0.000
  Final Stored Mass ........       404.190       676.919        15.549         1.560         8.772
  Continuity Error (%) .....         5.495         5.569         3.815         3.456         3.641
  
  
  *************************
  Highest Continuity Errors
  *************************
  Node HS02004842 (19.35%)
  Node JK-storage (-15.63%)
  Node YS02001774 (13.97%)
  Node YS02001884 (12.61%)
  Node YSB1171 (4.21%)
  
  
  ***************************
  Time-Step Critical Elements
  ***************************
  Link WS02006252WS02006251 (56.36%)
  Link WS02006280WS02006229 (8.49%)
  Link YS02006556YS02006558 (8.34%)
  Link YS02001793JiankangQianchi (6.47%)
  Link WS02006238WS02006235 (4.47%)
  
  
  ********************************
  Highest Flow Instability Indexes
  ********************************
  Link WS02006113WS02006111 (48)
  Link YS02163601YS02164001 (30)
  Link YS02001629YS02163301 (30)
  Link YS02163301YS02001633 (29)
  Link YS02001619YS02001622 (28)
  
  
  *************************
  Routing Time Step Summary
  *************************
  Minimum Time Step           :     0.50 sec
  Average Time Step           :     1.43 sec
  Maximum Time Step           :     5.00 sec
  Percent in Steady State     :    -0.00
  Average Iterations per Step :     4.06
  Percent Not Converging      :    18.89
  
  
  ***************************
  Subcatchment Runoff Summary
  ***************************
  
  ------------------------------------------------------------------------------------------------------------------------------
                            Total      Total      Total      Total     Imperv       Perv      Total       Total     Peak  Runoff
                           Precip      Runon       Evap      Infil     Runoff     Runoff     Runoff      Runoff   Runoff   Coeff
  Subcatchment                 mm         mm         mm         mm         mm         mm         mm    10^6 ltr      LPS
  ------------------------------------------------------------------------------------------------------------------------------
  sub0                       7.97       0.00       0.00       0.56       7.37       0.00       7.37        0.01     1.13   0.924
  sub1                       7.97       0.00       0.00       0.88       7.00       0.00       7.00        0.05     7.41   0.879
  sub2                       7.97       0.00       0.00       2.95       4.94       0.00       4.94        0.05     6.97   0.620
  sub3                       7.97       0.00       0.00       2.95       4.90       0.00       4.90        0.11    15.30   0.615
  sub4                       7.97       0.00       0.00       0.88       6.86       0.00       6.86        0.14    18.78   0.861
  sub5                       7.97       0.00       0.00       0.56       7.32       0.00       7.32        0.08    13.18   0.918
  sub7                       7.97       0.00       0.00       0.72       7.19       0.00       7.19        0.02     4.14   0.902
  sub8                       7.97       0.00       0.00       0.72       7.18       0.00       7.18        0.05     7.57   0.901
  sub9                       7.97       0.00       0.00       0.72       7.18       0.00       7.18        0.03     5.67   0.901
  sub10                      7.97       0.00       0.00       0.64       7.25       0.00       7.25        0.08    12.87   0.909
  sub11                      7.97       0.00       0.00       0.64       7.26       0.00       7.26        0.08    14.00   0.911
  sub12                      7.97       0.00       0.00       1.04       6.89       0.00       6.89        0.06    11.01   0.864
  sub14                      7.97       0.00       0.00       0.72       7.18       0.00       7.18        0.07    11.19   0.901
  sub15                      7.97       0.00       0.00       2.39       5.52       0.00       5.52        0.09    15.44   0.692
  sub16                      7.97       0.00       0.00       2.63       5.30       0.00       5.30        0.06     9.91   0.665
  sub17                      7.97       0.00       0.00       2.55       5.38       0.00       5.38        0.05     8.11   0.675
  sub22                      7.97       0.00       0.00       3.43       4.50       0.00       4.50        0.28    47.62   0.565
  sub23                      7.97       0.00       0.00       2.95       4.98       0.00       4.98        0.24    40.25   0.625
  sub60                      7.97       0.00       0.00       0.96       5.46       0.00       5.46        1.66   151.54   0.685
  sub61                      7.97       0.00       0.00       1.35       5.63       0.00       5.63        1.74   173.84   0.707
  sub62                      7.97       0.00       0.00       0.64       6.10       0.00       6.10        1.88   183.18   0.766
  sub63                      7.97       0.00       0.00       2.31       4.95       0.00       4.95        1.50   154.60   0.622
  sub64                      7.97       0.00       0.00       1.20       5.23       0.00       5.23        1.59   144.65   0.657
  sub65                      7.97       0.00       0.00       1.04       5.31       0.00       5.31        1.63   147.50   0.667
  sub66                      7.97       0.00       0.00       2.31       4.51       0.00       4.51        1.38   129.61   0.566
  sub67                      7.97       0.00       0.00       0.64       6.51       0.00       6.51        2.01   210.42   0.817
  sub68                      7.97       0.00       0.00       1.12       5.94       0.00       5.94        1.83   186.51   0.746
  sub69                      7.97       0.00       0.00       1.20       6.23       0.00       6.23        1.46   160.45   0.782
  sub70                      7.97       6.36       0.00       4.84       8.14       0.03       8.17        1.87   178.84   0.570
  sub71                      7.97       0.00       0.00       0.64       5.91       0.00       5.91        1.40   132.06   0.742
  sub72                      7.97       0.00       0.00       0.56       4.54       0.00       4.54        0.92    70.64   0.569
  1                          7.97       7.95       0.00       1.37       8.72       1.86      10.58        2.49   189.61   0.665
  2                          7.97       0.00       0.00       3.02       1.86       0.71       2.57        1.03   101.68   0.323
  
  
  ****************************
  Subcatchment Washoff Summary
  ****************************
  
  ------------------------------------------------------------------------------------------
                                 COD            SS            TN            TP         NH4-N
  Subcatchment                    kg            kg            kg            kg            kg
  ------------------------------------------------------------------------------------------
  sub0                         1.154         2.120         0.019         0.002         0.009
  sub1                         4.872         9.141         0.092         0.006         0.044
  sub2                         2.834         5.134         0.063         0.004         0.029
  sub3                         6.993        12.550         0.152         0.010         0.069
  sub4                        11.296        21.309         0.231         0.013         0.110
  sub5                        11.203        20.746         0.197         0.015         0.095
  sub7                         2.539         4.847         0.048         0.003         0.023
  sub8                         3.864         7.535         0.079         0.004         0.038
  sub9                         3.272         6.293         0.064         0.004         0.031
  sub10                        9.278        17.409         0.170         0.012         0.082
  sub11                        9.132        17.354         0.172         0.011         0.083
  sub12                        7.524        14.018         0.135         0.010         0.065
  sub14                        6.943        13.227         0.133         0.009         0.064
  sub15                        8.153        14.791         0.161         0.011         0.075
  sub16                        5.095         9.220         0.099         0.007         0.046
  sub17                        4.666         8.366         0.087         0.007         0.041
  sub22                       23.808        42.183         0.465         0.034         0.214
  sub23                       14.685        27.044         0.329         0.021         0.149
  sub60                       99.626       173.935         2.069         0.121         0.988
  sub61                      123.114       213.743         2.353         0.155         1.129
  sub62                      130.211       230.398         2.632         0.160         1.259
  sub63                       90.999       155.642         1.915         0.131         0.877
  sub64                      120.712       202.914         2.275         0.161         1.080
  sub65                      123.888       209.199         2.354         0.163         1.119
  sub66                       71.275       120.946         1.546         0.097         0.716
  sub67                      191.546       335.584         3.460         0.248         1.666
  sub68                      136.944       240.416         2.701         0.176         1.284
  sub69                      123.967       220.122         2.376         0.162         1.130
  sub70                      197.244       351.358         4.070         0.273         1.886
  sub71                       86.616       154.639         1.864         0.103         0.889
  sub72                       62.578       103.628         1.206         0.079         0.578
  1                          119.028       213.462         2.530         0.170         1.156
  2                           16.512        27.448         0.518         0.031         0.217
  ------------------------------------------------------------------------------------------
  System                    1831.572      3206.723        36.565         2.413        17.241
  
  
  ******************
  Node Depth Summary
  ******************
  
  ---------------------------------------------------------------------------------
                                 Average  Maximum  Maximum  Time of Max    Reported
                                   Depth    Depth      HGL   Occurrence   Max Depth
  Node                 Type       Meters   Meters   Meters  days hr:min      Meters
  ---------------------------------------------------------------------------------
  WS02001211           JUNCTION     0.75     0.80     5.64     0  03:24        0.80
  WS02001212           JUNCTION     0.46     0.51     5.58     0  03:23        0.51
  WS02001213           JUNCTION     0.69     0.77     5.53     0  03:22        0.77
  WS02003069           JUNCTION     0.48     0.60     5.19     0  03:21        0.60
  WS02003072           JUNCTION     0.54     0.66     5.03     0  03:22        0.66
  WS02003073           JUNCTION     0.33     0.41     4.47     0  03:22        0.41
  WS02003060           JUNCTION     0.42     0.53     5.46     0  03:21        0.53
  WS02003066           JUNCTION     0.22     0.31     5.87     0  03:19        0.31
  WS02003059           JUNCTION     0.74     0.82     5.51     0  03:22        0.82
  WS02003067           JUNCTION     0.54     0.72     6.04     0  03:19        0.72
  WS02004401           JUNCTION     0.64     0.92     6.92     0  03:14        0.91
  WS02004402           JUNCTION     0.67     0.94     6.90     0  03:15        0.93
  WS02004403           JUNCTION     0.69     0.95     6.88     0  03:15        0.95
  WS02004404           JUNCTION     0.77     1.08     6.93     0  03:13        1.02
  WS02004406           JUNCTION     0.77     0.99     6.82     0  03:15        0.99
  WS02004409           JUNCTION     0.46     0.71     6.48     0  03:18        0.71
  WS02004410           JUNCTION     0.48     0.72     6.44     0  03:18        0.72
  WS02004411           JUNCTION     0.49     0.73     6.41     0  03:18        0.73
  WS02004412           JUNCTION     0.51     0.73     6.37     0  03:19        0.73
  WS02004413           JUNCTION     0.66     0.89     6.36     0  03:19        0.89
  WS02004405           JUNCTION     0.76     1.02     6.87     0  03:14        1.00
  WS02006109           JUNCTION     0.74     1.05     7.67     0  03:12        1.04
  WS02006110           JUNCTION     0.73     0.97     7.56     0  03:12        0.97
  WS02006111           JUNCTION     0.21     0.31     7.01     0  03:13        0.30
  WS02006112           JUNCTION     0.82     1.19     7.07     0  03:17        1.16
  WS02006113           JUNCTION     0.32     0.49     7.38     0  03:12        0.49
  WS02006115           JUNCTION     0.54     0.82     6.96     0  03:14        0.81
  WS02006116           JUNCTION     0.62     0.90     6.94     0  03:15        0.90
  WS02006230           JUNCTION     0.72     1.19     7.94     0  03:11        1.19
  WS02006231           JUNCTION     0.47     0.93     8.05     0  03:12        0.93
  WS02006232           JUNCTION     0.61     1.12     8.16     0  03:13        1.11
  WS02006234           JUNCTION     0.54     1.14     8.29     0  03:52        1.14
  WS02006235           JUNCTION     0.58     1.23     8.39     0  03:51        1.22
  WS02006238           JUNCTION     0.60     1.26     8.41     0  03:51        1.25
  WS02006240           JUNCTION     0.50     1.20     8.49     0  03:51        1.19
  WS02006242           JUNCTION     0.56     1.27     8.53     0  03:52        1.26
  WS02006243           JUNCTION     0.44     1.16     8.58     0  03:52        1.16
  WS02006245           JUNCTION     0.43     1.14     8.62     0  03:52        1.13
  WS02006247           JUNCTION     0.44     1.15     8.65     0  03:52        1.14
  WS02006248           JUNCTION     0.39     1.09     8.67     0  03:52        1.08
  WS02006249           JUNCTION     0.42     1.09     8.69     0  03:10        1.09
  WS02006239           JUNCTION     0.56     1.24     8.45     0  03:51        1.23
  WS02006251           JUNCTION     0.40     1.45     9.12     0  03:11        1.12
  WS02006252           JUNCTION     0.27     1.00     9.25     0  03:11        0.68
  WS02006253           JUNCTION     0.43     1.49     9.14     0  03:11        1.14
  WS02006256           JUNCTION     1.54     2.35     9.28     0  01:38        2.35
  WS02004138           JUNCTION     0.18     0.20     7.45     0  00:00        0.19
  WS02004139           JUNCTION     0.70     0.74     5.65     0  03:24        0.74
  WS02004407           JUNCTION     0.21     0.32     6.63     0  03:15        0.32
  WS02006228           JUNCTION     0.74     1.11     7.76     0  03:12        1.10
  WS02006229           JUNCTION     0.71     1.11     7.81     0  03:12        1.11
  WS02006280           JUNCTION     0.06     0.14     8.41     0  01:48        0.14
  WS02006284           JUNCTION     0.36     0.48     8.88     0  01:48        0.48
  WS02006287           JUNCTION     0.09     0.21     9.16     0  01:48        0.21
  WSF200               JUNCTION     0.20     0.33     5.56     0  03:19        0.33
  HS02004901           JUNCTION     0.12     0.22    10.05     0  01:36        0.22
  HS02004881           JUNCTION     0.01     0.02     9.05     0  01:48        0.02
  HS02004876           JUNCTION     0.04     0.10     9.13     0  01:47        0.10
  HS02004870           JUNCTION     0.01     0.04     9.33     0  01:48        0.04
  HS02004862           JUNCTION     0.02     0.05     9.43     0  01:49        0.05
  HS02004856           JUNCTION     0.08     0.10     9.53     0  01:48        0.10
  HS02004852           JUNCTION     0.01     0.03     9.54     0  01:50        0.03
  HS02004848           JUNCTION     0.01     0.03     9.63     0  01:48        0.03
  HS02004842           JUNCTION     0.33     0.36     9.63     0  01:48        0.36
  HS02004837           JUNCTION     0.03     0.05     9.63     0  01:48        0.05
  HS02004830           JUNCTION     0.04     0.06     9.53     0  01:49        0.06
  HS02004824           JUNCTION     0.02     0.04     9.44     0  01:51        0.04
  HS02004817           JUNCTION     0.43     0.52     9.37     0  01:49        0.52
  HS02004807           JUNCTION     0.12     0.20     9.37     0  01:49        0.20
  HS02004802           JUNCTION     0.16     0.24     9.36     0  01:48        0.24
  HS02004799           JUNCTION     0.11     0.25     9.46     0  01:45        0.25
  HS02004792           JUNCTION     0.03     0.09     9.62     0  01:45        0.09
  HS02004788           JUNCTION     0.02     0.07     9.97     0  01:45        0.07
  HS02004785           JUNCTION     0.04     0.13    10.03     0  01:37        0.13
  HS02004777           JUNCTION     0.14     0.24    10.04     0  01:37        0.24
  HS02004770           JUNCTION     0.11     0.21    10.05     0  01:36        0.21
  HS02004480           JUNCTION     0.07     0.19     9.43     0  01:45        0.19
  HS02004479           JUNCTION     0.11     0.23     9.43     0  01:46        0.23
  HS02004478           JUNCTION     0.06     0.12     9.35     0  01:47        0.12
  YS02001745           JUNCTION     0.70     0.87     8.38     0  03:01        0.86
  YS02001748           JUNCTION     1.09     1.31     8.39     0  03:04        1.30
  YS02001751           JUNCTION     1.28     1.54     8.42     0  02:58        1.52
  YS02001754           JUNCTION     1.53     1.84     8.45     0  02:58        1.81
  YS02001762           JUNCTION     1.73     2.06     8.46     0  02:58        2.04
  YS02001765           JUNCTION     1.68     1.99     8.44     0  02:58        1.99
  YS02001767           JUNCTION     1.65     1.94     8.43     0  02:59        1.94
  YS02001770           JUNCTION     1.64     1.91     8.40     0  02:52        1.91
  YS02001774           JUNCTION     1.71     1.97     8.39     0  02:52        1.97
  YS02001779           JUNCTION     1.46     1.68     8.37     0  02:49        1.68
  YS02001882           JUNCTION     0.37     0.64     7.35     0  03:00        0.63
  YS02001884           JUNCTION     0.46     0.73     7.34     0  03:00        0.73
  YS02001759           JUNCTION     1.76     2.10     8.47     0  02:58        2.07
  YS02001887           JUNCTION     0.54     0.81     7.35     0  03:00        0.80
  YS02001890           JUNCTION     0.57     0.83     7.34     0  03:01        0.83
  YS02001898           JUNCTION     0.34     0.59     7.33     0  02:59        0.59
  YS02001901           JUNCTION     0.46     0.72     7.33     0  02:59        0.71
  YS02001904           JUNCTION     0.44     0.69     7.32     0  02:59        0.69
  YS02001907           JUNCTION     0.77     1.05     7.34     0  03:04        1.04
  YS02001910           JUNCTION     0.56     0.82     7.32     0  02:57        0.82
  YS02001915           JUNCTION     0.35     0.61     7.32     0  02:56        0.61
  YS02001918           JUNCTION     0.12     0.25     7.32     0  02:57        0.25
  YS02001619           JUNCTION     1.24     1.50     8.43     0  02:43        1.45
  YS02001629           JUNCTION     1.59     1.85     8.40     0  02:43        1.83
  YS02001641           JUNCTION     1.70     1.94     8.37     0  02:48        1.93
  YS02001644           JUNCTION     1.70     1.92     8.35     0  02:48        1.92
  YS02001652           JUNCTION     1.54     2.16     8.76     0  02:53        1.92
  YS02001655           JUNCTION     1.30     2.14     8.99     0  03:20        1.76
  YS02001920           JUNCTION     0.22     0.33     7.33     0  03:01        0.33
  YS02001923           JUNCTION     0.09     0.12     7.38     0  03:01        0.12
  YS02001926           JUNCTION     0.18     0.24     7.68     0  03:01        0.24
  YS02001929           JUNCTION     0.09     0.13     7.82     0  03:01        0.13
  YS02001658           JUNCTION     1.04     2.23     9.37     0  02:56        1.63
  YS02001661           JUNCTION     0.81     2.33     9.73     0  02:56        1.81
  YS02001664           JUNCTION     0.35     0.57     8.50     0  02:56        0.56
  YS02001622           JUNCTION     1.26     1.52     8.42     0  02:43        1.48
  YS02001633           JUNCTION     1.68     1.95     8.40     0  02:48        1.93
  YS02001649           JUNCTION     1.74     2.05     8.44     0  02:51        2.03
  YS02001757           JUNCTION     1.86     2.20     8.46     0  02:58        2.16
  YS02001895           JUNCTION     0.33     0.59     7.34     0  03:00        0.59
  YS02001625           JUNCTION     1.54     1.78     8.38     0  02:43        1.78
  YS02163301           JUNCTION     1.62     1.89     8.40     0  02:48        1.86
  YS02163601           JUNCTION     1.74     2.00     8.40     0  02:48        1.97
  YS02164001           JUNCTION     1.68     1.93     8.39     0  02:48        1.90
  YS02001647           JUNCTION     1.53     1.81     8.42     0  02:58        1.78
  YSB1154              JUNCTION     0.25     0.38     9.44     0  01:46        0.38
  YSB6556              JUNCTION     0.14     0.27     9.43     0  01:45        0.27
  YSB1174              JUNCTION     0.20     0.33     9.43     0  01:45        0.33
  YSB1171              JUNCTION     0.40     0.53     9.43     0  01:46        0.53
  YS02006553           JUNCTION     0.77     1.05     7.33     0  02:34        1.04
  YS02006561           JUNCTION     0.18     0.36     7.02     0  02:40        0.35
  YS02006556           JUNCTION     0.74     1.02     7.33     0  02:58        1.01
  YS02006558           JUNCTION     0.79     1.07     7.34     0  02:58        1.06
  YS02001783           JUNCTION     0.36     1.08     7.22     0  02:39        0.93
  YS02001784           JUNCTION     0.39     1.14     7.21     0  02:39        0.96
  YS02001786           JUNCTION     0.35     1.16     7.19     0  02:39        0.92
  YS02001788           JUNCTION     0.29     1.15     7.13     0  02:39        0.90
  YS02001790           JUNCTION     0.39     1.56     7.20     0  02:37        1.15
  YS02001791           JUNCTION     0.35     1.93     7.40     0  02:37        1.22
  YS02001793           JUNCTION     0.48     2.07     6.91     0  02:36        1.79
  WSC                  OUTFALL      0.33     0.41     1.08     0  03:23        0.41
  JK-storage           STORAGE      2.67     5.80     6.60     0  01:59        5.80
  CC-storage           STORAGE      1.12     1.37     8.37     0  04:43        1.37
  XR-storage           STORAGE      3.40     5.89     3.89     0  04:10        5.89
  
  
  *******************
  Node Inflow Summary
  *******************
  
  -------------------------------------------------------------------------------------------------
                                  Maximum  Maximum                  Lateral       Total        Flow
                                  Lateral    Total  Time of Max      Inflow      Inflow     Balance
                                   Inflow   Inflow   Occurrence      Volume      Volume       Error
  Node                 Type           LPS      LPS  days hr:min    10^6 ltr    10^6 ltr     Percent
  -------------------------------------------------------------------------------------------------
  WS02001211           JUNCTION      7.35   389.38     0  04:49       0.207        9.77       0.116
  WS02001212           JUNCTION      0.00   391.33     0  04:49           0        9.76       0.070
  WS02001213           JUNCTION      0.00   393.29     0  04:48           0        9.75       0.181
  WS02003069           JUNCTION      0.32   988.40     0  03:21     0.00902        17.5       0.113
  WS02003072           JUNCTION      0.00   988.38     0  03:22           0        17.5       0.153
  WS02003073           JUNCTION      1.82   990.35     0  03:22      0.0514        17.5       0.165
  WS02003060           JUNCTION     16.53   988.23     0  03:21       0.466        17.5       0.108
  WS02003066           JUNCTION      0.00   596.07     0  03:19           0        7.38       0.063
  WS02003059           JUNCTION      0.00   396.58     0  04:48           0        9.74       0.256
  WS02003067           JUNCTION      0.00   595.80     0  03:19           0        7.39       0.127
  WS02004401           JUNCTION      0.00   621.27     0  03:14           0        7.61       0.268
  WS02004402           JUNCTION      0.00   623.26     0  03:15           0        7.59       0.255
  WS02004403           JUNCTION      0.00   616.71     0  03:14           0        7.57       0.233
  WS02004404           JUNCTION      0.16   615.23     0  03:15     0.00457        7.56       0.163
  WS02004406           JUNCTION      0.00   614.83     0  03:15           0        7.53       0.429
  WS02004409           JUNCTION      0.00   608.27     0  03:15           0        7.49       0.213
  WS02004410           JUNCTION      0.00   600.30     0  03:16           0        7.47       0.245
  WS02004411           JUNCTION      0.00   597.10     0  03:18           0        7.46       0.253
  WS02004412           JUNCTION      0.00   596.62     0  03:18           0        7.44       0.275
  WS02004413           JUNCTION      0.00   595.96     0  03:18           0        7.42       0.412
  WS02004405           JUNCTION      0.04   614.24     0  03:15     0.00107        7.55       0.262
  WS02006109           JUNCTION      1.23   608.67     0  03:12      0.0347        7.68       0.201
  WS02006110           JUNCTION      0.00   608.22     0  03:12           0        7.66       0.243
  WS02006111           JUNCTION      0.00   633.25     0  03:13           0        7.63       0.040
  WS02006112           JUNCTION      8.11   616.56     0  03:12      0.0461        7.68       0.333
  WS02006113           JUNCTION      0.00   609.27     0  03:12           0        7.64       0.113
  WS02006115           JUNCTION      0.00   619.71     0  03:12           0        7.65       0.270
  WS02006116           JUNCTION      0.00   620.82     0  03:14           0        7.63       0.217
  WS02006230           JUNCTION     10.28   540.52     0  03:52        0.29        6.23       0.137
  WS02006231           JUNCTION      0.00   529.40     0  03:52           0        5.96       0.173
  WS02006232           JUNCTION      0.00   528.76     0  03:52           0        5.97       0.192
  WS02006234           JUNCTION      0.00   527.98     0  03:51           0        5.97       0.091
  WS02006235           JUNCTION      0.00   528.13     0  03:52           0        6.05       0.155
  WS02006238           JUNCTION      0.00   420.17     0  06:10           0        3.18       0.133
  WS02006240           JUNCTION      0.00   417.97     0  06:10           0         3.1       0.226
  WS02006242           JUNCTION      0.00   417.38     0  06:10           0        3.08       0.256
  WS02006243           JUNCTION      0.00   416.94     0  06:10           0        3.07      -0.054
  WS02006245           JUNCTION      0.00   416.37     0  06:10           0        3.08       0.261
  WS02006247           JUNCTION      0.00   416.65     0  06:10           0        3.08       0.067
  WS02006248           JUNCTION      0.00   416.96     0  06:10           0        3.08      -0.062
  WS02006249           JUNCTION      0.00   429.75     0  06:02           0        3.27       0.118
  WS02006239           JUNCTION      0.00   419.44     0  06:10           0        3.13       0.129
  WS02006251           JUNCTION      0.08   413.43     0  06:02     0.00217        3.31      -0.027
  WS02006252           JUNCTION      0.00   400.00     0  03:40           0           3       0.007
  WS02006253           JUNCTION      1.13   174.72     0  03:10     0.00596       0.302       0.082
  WS02006256           JUNCTION      0.00   983.00     0  02:10           0        6.73       0.025
  WS02004138           JUNCTION      0.00   380.00     0  00:00           0        9.58       0.030
  WS02004139           JUNCTION      0.32   394.45     0  00:00     0.00905        9.58       0.196
  WS02004407           JUNCTION      0.00   609.57     0  03:15           0         7.5       0.091
  WS02006228           JUNCTION      0.00   607.20     0  03:12           0        7.65       0.151
  WS02006229           JUNCTION      0.00   604.70     0  03:12           0        7.66       0.159
  WS02006280           JUNCTION      0.00   204.94     0  01:48           0        1.44       0.005
  WS02006284           JUNCTION      0.10   204.95     0  01:48      0.0027        1.44       0.030
  WS02006287           JUNCTION      0.00   204.85     0  01:47           0        1.44       0.050
  WSF200               JUNCTION      0.00   596.18     0  03:19           0        7.37       0.058
  HS02004901           JUNCTION      9.91     9.91     0  01:30      0.0555      0.0558       3.259
  HS02004881           JUNCTION      4.14    40.49     0  01:47      0.0242       0.257       0.091
  HS02004876           JUNCTION      7.41    36.48     0  01:48      0.0466       0.233       0.230
  HS02004870           JUNCTION      7.57    29.14     0  01:48      0.0459       0.187       0.058
  HS02004862           JUNCTION      7.17    21.74     0  01:48      0.0517       0.141       0.121
  HS02004856           JUNCTION      5.67    14.60     0  01:48      0.0345      0.0907       1.604
  HS02004852           JUNCTION      0.00     9.08     0  01:48           0      0.0562       0.094
  HS02004848           JUNCTION     15.30    15.30     0  01:49        0.11        0.11       0.040
  HS02004842           JUNCTION      0.00     6.70     0  02:15           0      0.0672      23.991
  HS02004837           JUNCTION     19.22    25.27     0  01:48       0.259       0.313       0.259
  HS02004830           JUNCTION      0.15    25.40     0  01:48     0.00423       0.303       0.408
  HS02004824           JUNCTION     18.83    43.36     0  01:51       0.144       0.447       0.121
  HS02004817           JUNCTION      0.60    43.96     0  01:51      0.0169       0.463       3.733
  HS02004807           JUNCTION     14.00    57.42     0  01:49      0.0844       0.532       0.826
  HS02004802           JUNCTION      0.00    57.58     0  01:51           0        0.53       0.753
  HS02004799           JUNCTION     11.19   124.89     0  01:45      0.0683       0.789       0.367
  HS02004792           JUNCTION     47.90   113.71     0  01:44       0.292       0.721       0.056
  HS02004788           JUNCTION     17.11    66.21     0  01:45       0.142        0.43       0.090
  HS02004785           JUNCTION      0.15    49.24     0  01:36     0.00423       0.289       0.170
  HS02004777           JUNCTION      0.03    49.25     0  01:34    0.000846        0.29       1.826
  HS02004770           JUNCTION     40.25    49.72     0  01:32       0.237       0.291       1.070
  HS02004480           JUNCTION      0.00   148.17     0  01:45           0       0.928       0.102
  HS02004479           JUNCTION      0.00    23.31     0  01:48           0       0.152       0.486
  HS02004478           JUNCTION      0.00   204.85     0  01:47           0        1.44       0.025
  YS02001745           JUNCTION    151.55   269.24     0  02:37        1.65        1.67       0.691
  YS02001748           JUNCTION      0.04   394.07     0  02:38     0.00127        1.66       1.363
  YS02001751           JUNCTION      0.01   345.39     0  02:24     0.00031        1.62       1.451
  YS02001754           JUNCTION      0.26   187.55     0  02:23     0.00733        1.61       1.569
  YS02001762           JUNCTION      0.00   204.06     0  02:36           0        1.68       1.290
  YS02001765           JUNCTION      0.00   198.53     0  02:36           0        1.68       1.469
  YS02001767           JUNCTION      0.54   194.23     0  02:36      0.0151         1.7       2.133
  YS02001770           JUNCTION    183.33   183.33     0  03:00        1.88        1.89       1.683
  YS02001774           JUNCTION      0.00   113.33     0  03:09           0       0.181      16.242
  YS02001779           JUNCTION      0.01   113.33     0  03:09    0.000141       0.147      11.691
  YS02001882           JUNCTION      0.00    15.21     0  03:00           0      0.0141      16.089
  YS02001884           JUNCTION      0.00    16.20     0  02:56           0      0.0434      14.428
  YS02001759           JUNCTION    173.88   374.09     0  02:36        1.74        3.38       0.681
  YS02001887           JUNCTION    210.87   229.16     0  03:01        2.02        2.05       0.382
  YS02001890           JUNCTION      0.00   224.33     0  03:01           0        2.01       0.425
  YS02001898           JUNCTION      0.00   232.14     0  03:01           0        1.99       0.126
  YS02001901           JUNCTION      0.00   227.29     0  02:59           0        1.99       0.314
  YS02001904           JUNCTION      0.00   228.75     0  03:02           0        1.99       0.286
  YS02001907           JUNCTION      0.00   449.12     0  03:04           0        4.37       0.523
  YS02001910           JUNCTION      0.00   225.71     0  03:01           0        2.39       0.460
  YS02001915           JUNCTION    132.08   218.10     0  03:01         1.4         2.4       0.220
  YS02001918           JUNCTION      0.00    79.47     0  02:58           0           1       0.156
  YS02001619           JUNCTION    129.61   129.61     0  03:01        1.38        1.38       0.884
  YS02001629           JUNCTION      0.00   186.79     0  02:26           0         1.3       2.245
  YS02001641           JUNCTION      0.00   299.47     0  02:38           0        2.84       0.757
  YS02001644           JUNCTION    144.69   719.36     0  03:08        1.59         5.8       0.456
  YS02001652           JUNCTION      0.00   212.39     0  02:34           0        1.45       1.680
  YS02001655           JUNCTION      0.15   301.35     0  02:24     0.00434        1.47       1.661
  YS02001920           JUNCTION      2.87    73.45     0  03:01      0.0809           1       0.255
  YS02001923           JUNCTION      0.04    70.59     0  03:01     0.00106       0.923       0.046
  YS02001926           JUNCTION      0.05    70.67     0  03:01     0.00147       0.925       0.314
  YS02001929           JUNCTION     70.64    70.64     0  03:01       0.924       0.924       0.045
  YS02001658           JUNCTION      0.00   527.02     0  02:34           0        1.52       1.419
  YS02001661           JUNCTION      0.00   541.66     0  02:51           0        1.74       0.196
  YS02001664           JUNCTION    154.60   376.29     0  02:51         1.5        1.72       0.381
  YS02001622           JUNCTION      0.00   154.54     0  02:28           0        1.37       2.373
  YS02001633           JUNCTION    147.70   292.12     0  02:39        1.64         2.9       1.119
  YS02001649           JUNCTION      0.00   575.34     0  02:49           0        4.41       0.844
  YS02001757           JUNCTION      0.00  1047.44     0  02:49           0        8.01       1.155
  YS02001895           JUNCTION      0.00   229.16     0  03:01           0           2       0.227
  YS02001625           JUNCTION      0.00   186.62     0  02:26           0        1.34       3.008
  YS02163301           JUNCTION      0.00   155.88     0  02:39           0        1.28       1.917
  YS02163601           JUNCTION      0.11   293.54     0  02:39      0.0031        2.86       1.063
  YS02164001           JUNCTION      0.00   294.87     0  02:39           0        2.84       0.721
  YS02001647           JUNCTION      0.00   436.21     0  02:38           0        3.48       0.822
  YSB1154              JUNCTION     13.18    13.18     0  01:46      0.0829      0.0836       1.761
  YSB6556              JUNCTION      0.00    13.25     0  01:46           0      0.0843       1.506
  YSB1174              JUNCTION     11.01    11.01     0  01:29      0.0602      0.0606       2.162
  YSB1171              JUNCTION      0.00    23.41     0  01:44           0        0.15       4.396
  YS02006553           JUNCTION      0.00   440.07     0  03:01           0        4.36       0.334
  YS02006561           JUNCTION      0.00   670.39     0  03:00           0        6.16      -0.000
  YS02006556           JUNCTION      0.00   440.56     0  03:01           0        4.37       0.243
  YS02006558           JUNCTION    187.39   656.58     0  03:00        1.85        6.19       0.082
  YS02001783           JUNCTION      0.00   659.22     0  02:58           0        6.16       0.022
  YS02001784           JUNCTION      1.06   654.51     0  02:58      0.0299        6.19       0.050
  YS02001786           JUNCTION      0.06   654.40     0  02:58     0.00159        6.18       0.040
  YS02001788           JUNCTION      0.07   698.10     0  02:59       0.002        6.19       0.028
  YS02001790           JUNCTION      0.15   745.67     0  02:59     0.00437        6.19      -0.000
  YS02001791           JUNCTION      0.00   784.11     0  02:59           0        6.19      -0.002
  YS02001793           JUNCTION      0.00   833.86     0  03:00           0        6.19      -0.013
  WSC                  OUTFALL       0.00   990.47     0  03:23           0        17.5       0.000
  JK-storage           STORAGE       0.00   849.45     0  02:35           0        6.34     -13.517
  CC-storage           STORAGE       0.00  1049.60     0  02:49           0        6.99       0.942
  XR-storage           STORAGE     490.63   490.63     0  03:01        9.16        9.75      -0.875
  
  
  **********************
  Node Surcharge Summary
  **********************
  
  Surcharging occurs when water rises above the top of the highest conduit.
  ---------------------------------------------------------------------
                                               Max. Height   Min. Depth
                                   Hours       Above Crown    Below Rim
  Node                 Type      Surcharged         Meters       Meters
  ---------------------------------------------------------------------
  WS02004404           JUNCTION        0.08          0.077        2.703
  WS02004405           JUNCTION        0.01          0.024        2.776
  WS02006109           JUNCTION        2.70          0.230        1.590
  WS02006110           JUNCTION        0.92          0.063        1.787
  WS02006112           JUNCTION        1.23          0.186        1.494
  WS02006230           JUNCTION        0.83          0.111        1.459
  WS02006231           JUNCTION        1.08          0.221        1.309
  WS02006232           JUNCTION        2.04          0.419        1.061
  WS02006234           JUNCTION        1.69          0.417        0.823
  WS02006235           JUNCTION        1.90          0.520        0.770
  WS02006238           JUNCTION        1.95          0.541        0.889
  WS02006240           JUNCTION        1.64          0.486        0.904
  WS02006242           JUNCTION        1.69          0.535        0.285
  WS02006243           JUNCTION        1.60          0.452        0.318
  WS02006245           JUNCTION        1.46          0.427        0.423
  WS02006247           JUNCTION        1.47          0.438        0.322
  WS02006248           JUNCTION        1.29          0.366        0.014
  WS02006249           JUNCTION        1.33          0.390        0.000
  WS02006239           JUNCTION        1.71          0.499        0.791
  WS02006251           JUNCTION        0.75          0.417        0.763
  WS02006252           JUNCTION        1.54          0.603        0.497
  WS02006253           JUNCTION        0.77          0.452        2.028
  WS02006256           JUNCTION        6.33          2.050        0.000
  WS02006228           JUNCTION        2.63          0.279        1.921
  YS02001748           JUNCTION        5.10          0.233        0.957
  YS02001751           JUNCTION        5.35          0.541        0.659
  YS02001754           JUNCTION        5.67          0.788        0.362
  YS02001762           JUNCTION        5.95          1.060        0.090
  YS02001765           JUNCTION        5.91          0.995        0.105
  YS02001767           JUNCTION        5.88          0.936        0.094
  YS02001770           JUNCTION        5.85          0.879        0.041
  YS02001774           JUNCTION        5.94          0.973        0.077
  YS02001779           JUNCTION        5.64          0.680        0.000
  YS02001759           JUNCTION        5.98          1.105        0.105
  YS02001907           JUNCTION        0.49          0.041        0.909
  YS02001619           JUNCTION        5.30          0.501        0.109
  YS02001629           JUNCTION        5.32          0.470        0.000
  YS02001641           JUNCTION        5.92          0.936        0.164
  YS02001644           JUNCTION        5.93          0.920        0.000
  YS02001652           JUNCTION        5.73          1.130        0.000
  YS02001655           JUNCTION        5.37          1.136        0.064
  YS02001658           JUNCTION        5.13          1.232        0.068
  YS02001661           JUNCTION        0.09          1.256        0.134
  YS02001622           JUNCTION        5.35          0.516        0.104
  YS02001633           JUNCTION        5.90          0.930        0.130
  YS02001649           JUNCTION        5.95          1.050        0.000
  YS02001757           JUNCTION        6.06          1.195        0.015
  YS02001625           JUNCTION        5.79          0.780        0.000
  YS02163301           JUNCTION        5.87          0.888        0.142
  YS02163601           JUNCTION        5.95          0.997        0.083
  YS02164001           JUNCTION        5.91          0.928        0.172
  YS02001647           JUNCTION        5.76          0.814        0.086
  YS02006553           JUNCTION        0.77          0.047        1.143
  YS02001783           JUNCTION        0.17          0.276        1.324
  YS02001784           JUNCTION        0.29          0.339        1.151
  YS02001786           JUNCTION        0.18          0.364        1.066
  YS02001788           JUNCTION        0.10          0.353        1.127
  YS02001790           JUNCTION        1.13          0.759        0.398
  YS02001791           JUNCTION        1.39          1.128        0.792
  YS02001793           JUNCTION        1.87          1.073        1.527
  
  
  *********************
  Node Flooding Summary
  *********************
  
  Flooding refers to all water that overflows a node, whether it ponds or not.
  --------------------------------------------------------------------------
                                                             Total   Maximum
                                 Maximum   Time of Max       Flood    Ponded
                        Hours       Rate    Occurrence      Volume     Depth
  Node                 Flooded       LPS   days hr:min    10^6 ltr    Meters
  --------------------------------------------------------------------------
  WS02006249              0.72    132.19      0  03:11       0.182     0.000
  WS02006256              2.91    792.40      0  03:12       3.795     0.000
  YS02001779              1.34    113.19      0  03:09       0.124     0.000
  YS02001629              0.01      3.29      0  02:43       0.000     0.000
  YS02001644              3.67    719.28      0  03:08       3.670     0.000
  YS02001652              0.01      5.17      0  02:53       0.000     0.000
  YS02001649              0.02     30.46      0  02:57       0.001     0.000
  YS02001625              0.02      8.53      0  02:43       0.000     0.000
  JK-storage              0.60    610.73      0  02:40       0.605     0.000
  
  
  **********************
  Storage Volume Summary
  **********************
  
  --------------------------------------------------------------------------------------------------
                         Average     Avg  Evap Exfil       Maximum     Max    Time of Max    Maximum
                          Volume    Pcnt  Pcnt  Pcnt        Volume    Pcnt     Occurrence    Outflow
  Storage Unit           1000 m3    Full  Loss  Loss       1000 m3    Full    days hr:min        LPS
  --------------------------------------------------------------------------------------------------
  JK-storage               0.134      46     0     0         0.291     100       0  01:59     983.00
  CC-storage               3.130      20     0     0         3.823      24       0  04:43     400.00
  XR-storage               0.408      44     0     0         0.707      76       0  04:10     380.00
  
  
  ***********************
  Outfall Loading Summary
  ***********************
  
  ---------------------------------------------------------------------------------------------------------------------------------
                         Flow       Avg       Max       Total         Total         Total         Total         Total         Total
                         Freq      Flow      Flow      Volume           COD            SS            TN            TP         NH4-N
  Outfall Node           Pcnt       LPS       LPS    10^6 ltr            kg            kg            kg            kg            kg
  ---------------------------------------------------------------------------------------------------------------------------------
  WSC                   99.99    683.32    990.47      17.511      2115.459      3486.352       160.674        19.420        98.649
  ---------------------------------------------------------------------------------------------------------------------------------
  System                99.99    683.32    990.47      17.511      2115.459      3486.352       160.674        19.420        98.649
  
  
  ********************
  Link Flow Summary
  ********************
  
  -----------------------------------------------------------------------------
                                 Maximum  Time of Max   Maximum    Max/    Max/
                                  |Flow|   Occurrence   |Veloc|    Full    Full
  Link                 Type          LPS  days hr:min     m/sec    Flow   Depth
  -----------------------------------------------------------------------------
  WS02003066WSF200     CONDUIT    596.18     0  03:19      2.80    0.10    0.24
  WS02006287WS02006284 CONDUIT    204.85     0  01:48      1.62    0.09    0.22
  WS02006284WS02006280 CONDUIT    204.94     0  01:48      1.86    0.09    0.20
  WS02006280WS02006229 CONDUIT    204.95     0  01:48      2.99    0.04    0.14
  WS02006229WS02006228 CONDUIT    607.20     0  03:12      1.21    2.01    1.00
  WS02006256WS02006235 CONDUIT    259.74     0  02:52      3.67    2.75    1.00
  WS02006253WS02006251 CONDUIT    156.19     0  03:10      0.49    0.47    1.00
  WS02006252WS02006251 CONDUIT    404.53     0  06:02      3.22    1.48    1.00
  WS02006251WS02006249 CONDUIT    429.75     0  06:02      1.13    1.24    1.00
  WS02006249WS02006248 CONDUIT    416.96     0  06:10      1.19    2.28    1.00
  WS02006248WS02006247 CONDUIT    416.65     0  06:10      1.16    0.91    1.00
  WS02006247WS02006245 CONDUIT    416.37     0  06:10      1.14    3.30    1.00
  WS02006245WS02006243 CONDUIT    416.94     0  06:10      1.18    1.23    1.00
  WS02006243WS02006242 CONDUIT    417.38     0  06:10      1.08    0.89    1.00
  WS02006242WS02006240 CONDUIT    417.97     0  06:10      1.09    1.66    1.00
  WS02006240WS02006239 CONDUIT    419.44     0  06:10      1.09    1.32    1.00
  WS02006239WS02006238 CONDUIT    420.17     0  06:10      1.09    1.34    1.00
  WS02006238WS02006235 CONDUIT    421.20     0  06:10      1.09    0.94    1.00
  WS02006235WS02006234 CONDUIT    527.98     0  03:51      1.37    5.57    1.00
  WS02006234WS02006232 CONDUIT    528.76     0  03:52      1.37    1.07    1.00
  WS02006232WS02006231 CONDUIT    529.40     0  03:52      1.38    1.11    1.00
  WS02006231WS02006230 CONDUIT    530.24     0  03:52      1.38    8.04    1.00
  WS02006230WS02006229 CONDUIT    545.20     0  03:52      1.42   12.13    1.00
  WS02006228WS02006109 CONDUIT    607.44     0  03:12      1.21    2.65    1.00
  WS02006116WS02004401 CONDUIT    621.27     0  03:14      0.84    0.86    0.91
  WS02006115WS02006116 CONDUIT    620.82     0  03:14      0.94    0.80    0.83
  WS02006113WS02006111 CONDUIT    633.25     0  03:13      2.57    0.76    0.49
  WS02006112WS02006115 CONDUIT    619.71     0  03:12      0.84    0.37    0.91
  WS02006111WS02006112 CONDUIT    614.65     0  03:12      1.67    0.29    0.69
  WS02006110WS02006113 CONDUIT    609.27     0  03:12      1.41    0.55    0.80
  WS02006109WS02006110 CONDUIT    608.22     0  03:12      1.21    1.17    1.00
  WS02004411WS02004412 CONDUIT    596.62     0  03:18      0.98    0.85    0.73
  WS02004401WS02004402 CONDUIT    623.26     0  03:15      0.82    0.75    0.92
  WS02004413WS02003067 CONDUIT    595.80     0  03:19      1.18    0.26    0.61
  WS02004412WS02004413 CONDUIT    595.96     0  03:18      0.90    0.40    0.81
  WS02004410WS02004411 CONDUIT    597.10     0  03:18      0.99    0.82    0.72
  WS02004409WS02004410 CONDUIT    600.30     0  03:16      1.02    0.78    0.71
  WS02004407WS02004409 CONDUIT    608.27     0  03:15      1.54    0.22    0.51
  WS02004406WS02004407 CONDUIT    609.57     0  03:15      1.12    0.27    0.65
  WS02004405WS02004406 CONDUIT    614.83     0  03:15      0.78    1.21    1.00
  WS02004404WS02004405 CONDUIT    614.20     0  03:15      0.78    6.02    1.00
  WS02004403WS02004404 CONDUIT    615.07     0  03:15      0.79    0.44    0.97
  WS02004402WS02004403 CONDUIT    616.71     0  03:14      0.81    0.89    0.94
  WS02004139WS02001211 CONDUIT    382.03     0  04:49      0.90    0.48    0.60
  WS02004138WS02004139 CONDUIT    394.13     0  00:00      3.62    0.08    0.44
  WS02003067WS02003066 CONDUIT    596.07     0  03:19      1.28    0.19    0.43
  WS02001213WS02003059 CONDUIT    396.58     0  04:48      0.89    0.65    0.79
  WS02001212WS02001213 CONDUIT    393.29     0  04:48      1.32    0.61    0.48
  WS02001211WS02001212 CONDUIT    391.33     0  04:49      0.78    0.30    0.66
  WS02003072WS02003073 CONDUIT    988.53     0  03:22      1.76    2.14    0.50
  WS02003069WS02003072 CONDUIT    988.38     0  03:22      1.65    0.48    0.52
  WS02003060WS02003069 CONDUIT    988.08     0  03:21      1.89    0.39    0.47
  WS02003059WS02003060 CONDUIT    401.08     0  04:47      0.95    0.26    0.68
  HS02004901HS02004770 CONDUIT      9.56     0  01:34      0.07    0.04    0.31
  HS02004876HS02004881 CONDUIT     36.52     0  01:48      0.58    0.39    0.09
  HS02004870HS02004876 CONDUIT     29.13     0  01:48      0.41    0.02    0.10
  HS02004842HS02004848 CONDUIT      6.70     0  02:15      0.03    0.00    0.28
  HS02004837HS02004842 CONDUIT      6.74     0  02:19      0.42    0.00    0.29
  HS02004830HS02004837 CONDUIT     25.25     0  01:48      0.45    0.03    0.08
  HS02004824HS02004830 CONDUIT     25.40     0  01:49      0.49    0.03    0.07
  HS02004817HS02004824 CONDUIT     43.36     0  01:51      0.17    0.02    0.40
  HS02004770HS02004777 CONDUIT     49.22     0  01:34      0.24    0.09    0.33
  HS02004799HS02004480 CONDUIT    124.88     0  01:45      0.58    0.16    0.31
  HS02004792HS02004799 CONDUIT    113.70     0  01:45      0.67    0.07    0.24
  HS02004788HS02004792 CONDUIT     66.20     0  01:45      0.82    0.04    0.12
  HS02004785HS02004788 CONDUIT     49.21     0  01:37      0.50    0.37    0.14
  HS02004777HS02004785 CONDUIT     49.09     0  01:36      0.26    0.06    0.27
  HS02004480HS02004478 CONDUIT    148.09     0  01:46      0.95    0.62    0.22
  HS02004479HS02004480 CONDUIT     23.44     0  01:49      0.35    0.02    0.30
  HS02004862HS02004870 CONDUIT     21.72     0  01:49      0.48    0.02    0.06
  HS02004848HS02004852 CONDUIT      9.08     0  01:48      0.32    0.01    0.04
  HS02004856HS02004862 CONDUIT     14.59     0  01:48      0.35    0.01    0.06
  HS02004852HS02004856 CONDUIT      9.06     0  01:50      0.14    0.01    0.10
  HS02004802HS02004478 CONDUIT     57.80     0  01:52      0.33    0.05    0.26
  HS02004478WS02006287 CONDUIT    204.85     0  01:47      1.32    0.06    0.17
  HS02004817HS02004807 CONDUIT     44.26     0  01:53      0.12    0.03    0.52
  HS02004807HS02004802 CONDUIT     57.58     0  01:51      0.27    0.11    0.30
  YS02001759YS02001757 CONDUIT    378.42     0  02:36      0.48    0.27    1.00
  YS02001762YS02001759 CONDUIT    209.58     0  02:36      0.27    0.24    1.00
  YS02001765YS02001762 CONDUIT    204.06     0  02:36      0.31    0.19    1.00
  YS02001770YS02001767 CONDUIT    193.70     0  02:36      0.39    0.77    1.00
  YS02001774YS02001770 CONDUIT    113.33     0  03:09      0.31    0.07    1.00
  YS02001779YS02001774 CONDUIT    113.32     0  03:09      0.14    0.06    1.00
  YS02001649YS02001757 CONDUIT    575.79     0  02:49      0.73    0.35    1.00
  YS02001767YS02001765 CONDUIT    198.53     0  02:36      0.38    0.25    1.00
  YS02006561YS02001783 CONDUIT    659.22     0  02:58      2.12    0.34    0.73
  YS02001783YS02001784 CONDUIT    653.45     0  02:58      1.55    0.90    1.00
  YS02001784YS02001785 CONDUIT    654.35     0  02:58      1.67    1.52    1.00
  YS02001788YS02001790 CONDUIT    745.52     0  02:59      2.21    0.55    1.00
  YS02001790YS02001791 CONDUIT    784.11     0  02:59      2.64    0.85    1.00
  YS02001791YS02001793 CONDUIT    833.86     0  03:00      5.37    0.36    1.00
  YS02001910YS02001907 CONDUIT    225.30     0  03:04      0.49    0.13    0.91
  YS02001786YS02001788 CONDUIT    698.03     0  02:59      2.13    1.34    1.00
  YS02001915YS02001910 CONDUIT    225.71     0  03:01      0.62    0.11    0.71
  YS02001918YS02001915 CONDUIT     87.23     0  03:01      0.44    0.05    0.43
  YS02001923YS02001920 CONDUIT     70.58     0  03:01      0.60    0.03    0.22
  YS02001926YS02001923 CONDUIT     70.55     0  03:01      0.68    0.10    0.19
  YS02001929YS02001926 CONDUIT     70.62     0  03:01      0.73    0.03    0.18
  YS02001920YS02001918 CONDUIT     79.47     0  02:58      0.59    0.08    0.29
  YS02001629YS02163301 CONDUIT    155.88     0  02:39      0.20    0.19    1.00
  YS02001619YS02001622 CONDUIT    154.54     0  02:28      0.63    0.23    1.00
  YS02001622YS02001625 CONDUIT    186.62     0  02:26      0.42    0.10    1.00
  YS02001625YS02001629 CONDUIT    186.79     0  02:26      0.25    0.09    1.00
  YS02163301YS02001633 CONDUIT    157.74     0  02:39      0.20    0.15    1.00
  YS02163601YS02164001 CONDUIT    294.87     0  02:39      0.38    0.26    1.00
  YS02164001YS02001641 CONDUIT    299.47     0  02:38      0.38    0.41    1.00
  YS02001641YS02001644 CONDUIT    302.19     0  02:38      0.38    0.98    1.00
  YS02001647YS02001649 CONDUIT    438.05     0  02:38      0.56    0.23    1.00
  YS02006553YS02006556 CONDUIT    440.56     0  03:01      0.57    0.38    0.99
  YS02006556YS02006558 CONDUIT    469.61     0  03:00      0.60    0.37    1.00
  YSB6556YSB1171       CONDUIT     13.32     0  01:48      0.09    0.01    0.57
  YS02001907YS02006553 CONDUIT    440.07     0  03:01      0.49    0.52    1.00
  YS02006558YS02006561 CONDUIT    670.39     0  03:00      3.14    1.48    0.74
  YS02001633YS02163601 CONDUIT    293.43     0  02:39      0.37    0.31    1.00
  YS02001644YS02001647 CONDUIT    436.21     0  02:38      0.56    0.26    1.00
  YS02001745YS02001748 CONDUIT    394.03     0  02:38      1.46    0.15    0.93
  YS02001748YS02001751 CONDUIT    345.38     0  02:24      1.08    0.17    1.00
  YS02001751YS02001754 CONDUIT    187.29     0  02:23      0.95    0.09    1.00
  YS02001754YS02001757 CONDUIT    189.34     0  02:23      0.33    0.08    1.00
  YS02001882YS02001884 CONDUIT     15.68     0  03:01      0.15    0.02    0.65
  YS02001884YS02001887 CONDUIT     22.27     0  03:08      0.11    0.03    0.74
  YS02001890YS02001895 CONDUIT    229.16     0  03:01      0.39    0.11    0.71
  YS02001895YS02001898 CONDUIT    232.14     0  03:01      0.55    0.40    0.57
  YS02001898YS02001901 CONDUIT    227.29     0  02:59      0.42    0.15    0.65
  YS02001901YS02001904 CONDUIT    228.75     0  03:02      0.39    0.35    0.71
  YS02001904YS02001907 CONDUIT    237.68     0  02:35      0.34    0.08    0.85
  YS02001887YS02001890 CONDUIT    224.33     0  03:01      0.34    0.38    0.79
  YS02001652YS02001649 CONDUIT    213.33     0  02:34      0.68    0.11    1.00
  YS02001655YS02001652 CONDUIT    212.39     0  02:34      1.03    0.10    1.00
  YS02001658YS02001655 CONDUIT    301.20     0  02:24      1.26    0.13    1.00
  YS02001661YS02001658 CONDUIT    527.02     0  02:34      1.53    0.21    1.00
  YS02001664YS02001661 CONDUIT    541.66     0  02:51      1.36    0.17    0.71
  YSB1154YSB6556       CONDUIT     13.25     0  01:46      0.16    0.02    0.46
  YSB1174YSB1171       CONDUIT     11.00     0  01:31      0.06    0.02    0.58
  YSB1171HS02004479    CONDUIT     23.31     0  01:48      0.54    0.02    0.44
  HS02004881HS02006253 CONDUIT     40.49     0  01:48      1.69    0.01    0.51
  YS02001793JiankangQianchi CONDUIT    849.45     0  02:35     15.86    0.07    1.00
  YS02001757CaochengTiaoxuchi CONDUIT   1049.60     0  02:49      1.43    0.46    1.00
  WSF200WS02003060     CONDUIT    596.69     0  03:19      1.80    0.13    0.36
  1                    CONDUIT    990.47     0  03:23      3.32    0.34    0.41
  CC-Pump-1            PUMP       200.00     0  03:10              1.00
  CC-Pump-2            PUMP       200.00     0  03:40              1.00
  JK-Pump-1            PUMP       300.00     0  02:00              1.00
  JK-Pump-2            PUMP       683.00     0  02:10              1.00
  XR-Pump-1            PUMP        95.00     0  00:00              1.00
  XR-Pump-2            PUMP        95.00     0  00:00              1.00
  XR-Pump-3            PUMP        95.00     0  00:00              1.00
  XR-Pump-4            PUMP        95.00     0  00:00              1.00
  
  
  ***************************
  Flow Classification Summary
  ***************************
  
  -------------------------------------------------------------------------------------
                      Adjusted    ---------- Fraction of Time in Flow Class ---------- 
                       /Actual         Up    Down  Sub   Sup   Up    Down  Norm  Inlet 
  Conduit               Length    Dry  Dry   Dry   Crit  Crit  Crit  Crit  Ltd   Ctrl  
  -------------------------------------------------------------------------------------
  WS02003066WSF200        1.00   0.01  0.07  0.00  0.00  0.92  0.00  0.00  0.59  0.00
  WS02006287WS02006284    1.00   0.03  0.01  0.00  0.59  0.36  0.00  0.00  0.77  0.00
  WS02006284WS02006280    1.00   0.04  0.00  0.00  0.00  0.00  0.00  0.96  0.00  0.00
  WS02006280WS02006229    1.00   0.04  0.00  0.00  0.00  0.00  0.00  0.96  0.00  0.00
  WS02006229WS02006228    1.00   0.00  0.00  0.00  1.00  0.00  0.00  0.00  0.00  0.00
  WS02006256WS02006235    1.00   0.06  0.00  0.00  0.94  0.00  0.00  0.00  0.01  0.00
  WS02006253WS02006251    1.00   0.01  0.02  0.00  0.96  0.00  0.01  0.00  0.00  0.00
  WS02006252WS02006251    1.00   0.24  0.00  0.00  0.09  0.00  0.68  0.00  0.00  0.00
  WS02006251WS02006249    1.00   0.00  0.00  0.00  1.00  0.00  0.00  0.00  0.35  0.00
  WS02006249WS02006248    1.00   0.00  0.01  0.00  0.78  0.00  0.22  0.00  0.00  0.00
  WS02006248WS02006247    1.00   0.01  0.00  0.00  0.98  0.00  0.00  0.02  0.26  0.00
  WS02006247WS02006245    1.00   0.01  0.00  0.00  0.95  0.00  0.00  0.05  0.00  0.00
  WS02006245WS02006243    1.00   0.01  0.00  0.00  0.90  0.00  0.00  0.09  0.01  0.00
  WS02006243WS02006242    1.00   0.01  0.00  0.00  0.95  0.00  0.00  0.04  0.18  0.00
  WS02006242WS02006240    1.00   0.01  0.03  0.00  0.94  0.00  0.01  0.00  0.00  0.00
  WS02006240WS02006239    1.00   0.05  0.00  0.00  0.92  0.00  0.00  0.03  0.01  0.00
  WS02006239WS02006238    1.00   0.05  0.00  0.00  0.94  0.00  0.00  0.01  0.01  0.00
  WS02006238WS02006235    1.00   0.05  0.01  0.00  0.94  0.00  0.00  0.00  0.00  0.00
  WS02006235WS02006234    1.00   0.06  0.00  0.00  0.92  0.00  0.02  0.00  0.00  0.00
  WS02006234WS02006232    1.00   0.06  0.00  0.00  0.94  0.00  0.00  0.00  0.01  0.00
  WS02006232WS02006231    1.00   0.06  0.00  0.00  0.94  0.00  0.00  0.00  0.00  0.00
  WS02006231WS02006230    1.00   0.06  0.00  0.00  0.61  0.00  0.33  0.00  0.00  0.00
  WS02006230WS02006229    1.00   0.00  0.00  0.00  0.99  0.00  0.00  0.01  0.00  0.00
  WS02006228WS02006109    1.00   0.00  0.00  0.00  1.00  0.00  0.00  0.00  0.01  0.00
  WS02006116WS02004401    1.00   0.03  0.00  0.00  0.97  0.00  0.00  0.00  0.00  0.00
  WS02006115WS02006116    1.00   0.03  0.00  0.00  0.94  0.00  0.00  0.03  0.00  0.00
  WS02006113WS02006111    1.00   0.02  0.00  0.00  0.01  0.97  0.00  0.00  0.20  0.00
  WS02006112WS02006115    1.00   0.02  0.01  0.00  0.97  0.00  0.00  0.00  0.00  0.00
  WS02006111WS02006112    1.00   0.02  0.00  0.00  0.98  0.00  0.00  0.00  0.92  0.00
  WS02006110WS02006113    1.00   0.00  0.02  0.00  0.98  0.00  0.00  0.00  0.00  0.00
  WS02006109WS02006110    1.00   0.00  0.00  0.00  0.99  0.00  0.00  0.00  0.00  0.00
  WS02004411WS02004412    1.00   0.07  0.00  0.00  0.93  0.00  0.00  0.00  0.00  0.00
  WS02004401WS02004402    1.00   0.03  0.00  0.00  0.97  0.00  0.00  0.00  0.04  0.00
  WS02004413WS02003067    1.00   0.07  0.01  0.00  0.00  0.00  0.92  0.00  0.00  0.00
  WS02004412WS02004413    1.00   0.07  0.00  0.00  0.93  0.00  0.00  0.00  0.00  0.00
  WS02004410WS02004411    1.00   0.07  0.00  0.00  0.93  0.00  0.00  0.00  0.00  0.00
  WS02004409WS02004410    1.00   0.07  0.00  0.00  0.93  0.00  0.00  0.00  0.00  0.00
  WS02004407WS02004409    1.00   0.07  0.00  0.00  0.93  0.01  0.00  0.00  0.80  0.00
  WS02004406WS02004407    1.00   0.00  0.06  0.00  0.94  0.00  0.00  0.00  0.00  0.00
  WS02004405WS02004406    1.00   0.00  0.00  0.00  1.00  0.00  0.00  0.00  0.04  0.00
  WS02004404WS02004405    1.00   0.00  0.00  0.00  1.00  0.00  0.00  0.00  0.00  0.00
  WS02004403WS02004404    1.00   0.00  0.03  0.00  0.97  0.00  0.00  0.00  0.04  0.00
  WS02004402WS02004403    1.00   0.03  0.00  0.00  0.97  0.00  0.00  0.00  0.00  0.00
  WS02004139WS02001211    1.00   0.00  0.00  0.00  1.00  0.00  0.00  0.00  0.00  0.00
  WS02004138WS02004139    1.00   0.00  0.00  0.00  1.00  0.00  0.00  0.00  1.00  0.00
  WS02003067WS02003066    1.00   0.08  0.00  0.00  0.92  0.00  0.00  0.00  0.00  0.00
  WS02001213WS02003059    1.00   0.00  0.00  0.00  1.00  0.00  0.00  0.00  0.00  0.00
  WS02001212WS02001213    1.00   0.00  0.00  0.00  0.86  0.00  0.13  0.00  0.00  0.00
  WS02001211WS02001212    1.00   0.00  0.00  0.00  1.00  0.00  0.00  0.00  0.00  0.00
  WS02003072WS02003073    1.00   0.00  0.00  0.00  0.00  0.00  0.00  1.00  0.00  0.00
  WS02003069WS02003072    1.00   0.00  0.00  0.00  1.00  0.00  0.00  0.00  0.13  0.00
  WS02003060WS02003069    1.00   0.00  0.00  0.00  0.99  0.01  0.00  0.00  0.09  0.00
  WS02003059WS02003060    1.00   0.00  0.00  0.00  1.00  0.00  0.00  0.00  0.00  0.00
  HS02004901HS02004770    1.00   0.04  0.00  0.00  0.96  0.00  0.00  0.00  0.00  0.00
  HS02004876HS02004881    1.00   0.01  0.00  0.00  0.99  0.00  0.00  0.00  0.00  0.00
  HS02004870HS02004876    1.00   0.00  0.00  0.00  1.00  0.00  0.00  0.00  0.95  0.00
  HS02004842HS02004848    1.00   0.00  0.04  0.00  0.96  0.00  0.00  0.00  0.58  0.00
  HS02004837HS02004842    1.00   0.00  0.00  0.00  1.00  0.00  0.00  0.00  0.11  0.00
  HS02004830HS02004837    1.00   0.00  0.00  0.00  1.00  0.00  0.00  0.00  0.99  0.00
  HS02004824HS02004830    1.00   0.00  0.00  0.00  1.00  0.00  0.00  0.00  0.00  0.00
  HS02004817HS02004824    1.00   0.00  0.00  0.00  1.00  0.00  0.00  0.00  1.00  0.00
  HS02004770HS02004777    1.00   0.00  0.04  0.00  0.96  0.00  0.00  0.00  0.02  0.00
  HS02004799HS02004480    1.00   0.00  0.01  0.00  0.96  0.00  0.03  0.00  0.00  0.00
  HS02004792HS02004799    1.00   0.00  0.00  0.00  1.00  0.00  0.00  0.00  0.98  0.00
  HS02004788HS02004792    1.00   0.00  0.00  0.00  1.00  0.00  0.00  0.00  0.98  0.00
  HS02004785HS02004788    1.00   0.00  0.00  0.00  1.00  0.00  0.00  0.00  0.00  0.00
  HS02004777HS02004785    1.00   0.00  0.00  0.00  1.00  0.00  0.00  0.00  0.11  0.00
  HS02004480HS02004478    1.00   0.04  0.00  0.00  0.64  0.00  0.00  0.32  0.00  0.00
  HS02004479HS02004480    1.00   0.01  0.00  0.00  0.99  0.00  0.00  0.00  0.11  0.00
  HS02004862HS02004870    1.00   0.00  0.00  0.00  1.00  0.00  0.00  0.00  0.03  0.00
  HS02004848HS02004852    1.00   0.04  0.00  0.00  0.96  0.00  0.00  0.00  0.78  0.00
  HS02004856HS02004862    1.00   0.00  0.05  0.00  0.95  0.00  0.00  0.00  0.84  0.00
  HS02004852HS02004856    1.00   0.04  0.00  0.00  0.96  0.00  0.00  0.00  0.86  0.00
  HS02004802HS02004478    1.00   0.04  0.00  0.00  0.96  0.00  0.00  0.00  0.02  0.00
  HS02004478WS02006287    1.00   0.04  0.00  0.00  0.82  0.13  0.00  0.00  0.77  0.00
  HS02004817HS02004807    1.00   0.00  0.04  0.00  0.96  0.00  0.00  0.00  0.01  0.00
  HS02004807HS02004802    1.00   0.04  0.00  0.00  0.96  0.00  0.00  0.00  0.00  0.00
  YS02001759YS02001757    1.00   0.00  0.00  0.00  1.00  0.00  0.00  0.00  0.15  0.00
  YS02001762YS02001759    1.00   0.00  0.00  0.00  1.00  0.00  0.00  0.00  0.02  0.00
  YS02001765YS02001762    1.00   0.00  0.00  0.00  1.00  0.00  0.00  0.00  0.13  0.00
  YS02001770YS02001767    1.00   0.00  0.00  0.00  1.00  0.00  0.00  0.00  0.00  0.00
  YS02001774YS02001770    1.00   0.00  0.04  0.00  0.96  0.00  0.00  0.00  0.02  0.00
  YS02001779YS02001774    1.00   0.00  0.00  0.00  1.00  0.00  0.00  0.00  0.17  0.00
  YS02001649YS02001757    1.00   0.00  0.00  0.00  1.00  0.00  0.00  0.00  0.15  0.00
  YS02001767YS02001765    1.00   0.00  0.00  0.00  1.00  0.00  0.00  0.00  0.00  0.00
  YS02006561YS02001783    1.00   0.05  0.00  0.00  0.16  0.79  0.00  0.00  0.62  0.00
  YS02001783YS02001784    1.00   0.00  0.05  0.00  0.95  0.00  0.00  0.00  0.00  0.00
  YS02001784YS02001785    1.00   0.00  0.00  0.00  1.00  0.00  0.00  0.00  0.16  0.00
  YS02001788YS02001790    1.00   0.00  0.00  0.00  0.27  0.73  0.00  0.00  0.46  0.00
  YS02001790YS02001791    1.00   0.00  0.00  0.00  0.24  0.76  0.00  0.00  0.55  0.00
  YS02001791YS02001793    1.00   0.00  0.00  0.00  0.30  0.70  0.00  0.00  0.05  0.00
  YS02001910YS02001907    1.00   0.00  0.00  0.00  0.99  0.00  0.00  0.01  0.12  0.00
  YS02001786YS02001788    1.00   0.00  0.00  0.00  0.24  0.76  0.00  0.00  0.00  0.00
  YS02001915YS02001910    1.00   0.00  0.00  0.00  0.99  0.01  0.00  0.00  0.14  0.00
  YS02001918YS02001915    1.00   0.00  0.00  0.00  0.99  0.00  0.00  0.00  0.63  0.00
  YS02001923YS02001920    1.00   0.00  0.00  0.00  1.00  0.00  0.00  0.00  1.00  0.00
  YS02001926YS02001923    1.00   0.00  0.02  0.00  0.00  0.00  0.98  0.00  0.00  0.00
  YS02001929YS02001926    1.00   0.00  0.04  0.00  0.96  0.00  0.00  0.00  0.87  0.00
  YS02001920YS02001918    1.00   0.00  0.00  0.00  1.00  0.00  0.00  0.00  0.00  0.00
  YS02001629YS02163301    1.00   0.04  0.00  0.00  0.95  0.00  0.00  0.00  0.00  0.00
  YS02001619YS02001622    1.00   0.04  0.00  0.00  0.96  0.00  0.00  0.00  0.00  0.00
  YS02001622YS02001625    1.00   0.04  0.00  0.00  0.96  0.00  0.00  0.00  0.03  0.00
  YS02001625YS02001629    1.00   0.04  0.01  0.00  0.93  0.00  0.02  0.00  0.00  0.00
  YS02163301YS02001633    1.00   0.00  0.04  0.00  0.96  0.00  0.00  0.00  0.00  0.00
  YS02163601YS02164001    1.00   0.00  0.02  0.00  0.98  0.00  0.00  0.00  0.00  0.00
  YS02164001YS02001641    1.00   0.00  0.02  0.00  0.98  0.00  0.00  0.00  0.06  0.00
  YS02001641YS02001644    1.00   0.00  0.00  0.00  1.00  0.00  0.00  0.00  0.00  0.00
  YS02001647YS02001649    1.00   0.00  0.05  0.00  0.95  0.00  0.00  0.00  0.01  0.00
  YS02006553YS02006556    1.00   0.00  0.00  0.00  1.00  0.00  0.00  0.00  0.03  0.00
  YS02006556YS02006558    1.00   0.00  0.00  0.00  1.00  0.00  0.00  0.00  0.00  0.00
  YSB6556YSB1171          1.00   0.01  0.02  0.00  0.96  0.00  0.00  0.00  0.00  0.00
  YS02001907YS02006553    1.00   0.00  0.01  0.00  0.99  0.00  0.00  0.00  0.00  0.00
  YS02006558YS02006561    1.00   0.05  0.00  0.00  0.00  0.95  0.00  0.00  0.64  0.00
  YS02001633YS02163601    1.00   0.00  0.00  0.00  1.00  0.00  0.00  0.00  0.15  0.00
  YS02001644YS02001647    1.00   0.00  0.05  0.00  0.95  0.00  0.00  0.00  0.00  0.00
  YS02001745YS02001748    1.00   0.00  0.00  0.00  0.90  0.01  0.00  0.09  0.05  0.00
  YS02001748YS02001751    1.00   0.00  0.00  0.00  0.97  0.03  0.00  0.00  0.15  0.00
  YS02001751YS02001754    1.00   0.00  0.00  0.00  0.94  0.00  0.00  0.06  0.02  0.00
  YS02001754YS02001757    1.00   0.00  0.00  0.00  1.00  0.00  0.00  0.00  0.17  0.00
  YS02001882YS02001884    1.00   0.04  0.00  0.00  0.96  0.00  0.00  0.00  0.00  0.00
  YS02001884YS02001887    1.00   0.02  0.02  0.00  0.97  0.00  0.00  0.00  0.00  0.00
  YS02001890YS02001895    1.00   0.00  0.04  0.00  0.96  0.00  0.00  0.00  0.00  0.00
  YS02001895YS02001898    1.00   0.04  0.00  0.00  0.94  0.00  0.01  0.00  0.00  0.00
  YS02001898YS02001901    1.00   0.05  0.00  0.00  0.95  0.00  0.00  0.00  0.01  0.00
  YS02001901YS02001904    1.00   0.05  0.00  0.00  0.95  0.00  0.00  0.00  0.00  0.00
  YS02001904YS02001907    1.00   0.00  0.05  0.00  0.95  0.00  0.00  0.00  0.00  0.00
  YS02001887YS02001890    1.00   0.00  0.00  0.00  0.99  0.00  0.01  0.00  0.00  0.00
  YS02001652YS02001649    1.00   0.00  0.00  0.00  1.00  0.00  0.00  0.00  0.15  0.00
  YS02001655YS02001652    1.00   0.00  0.00  0.00  0.94  0.00  0.00  0.06  0.02  0.00
  YS02001658YS02001655    1.00   0.00  0.04  0.00  0.93  0.03  0.00  0.00  0.06  0.00
  YS02001661YS02001658    1.00   0.04  0.00  0.00  0.90  0.06  0.00  0.00  0.09  0.00
  YS02001664YS02001661    1.00   0.04  0.00  0.00  0.90  0.07  0.00  0.00  0.21  0.00
  YSB1154YSB6556          1.00   0.04  0.00  0.00  0.96  0.00  0.00  0.00  0.01  0.00
  YSB1174YSB1171          1.00   0.01  0.01  0.00  0.97  0.00  0.00  0.00  0.00  0.00
  YSB1171HS02004479       1.00   0.01  0.00  0.00  0.98  0.00  0.00  0.00  0.10  0.00
  HS02004881HS02006253    1.00   0.02  0.00  0.00  0.52  0.01  0.00  0.46  0.34  0.00
  YS02001793JiankangQianchi    1.00   0.00  0.00  0.00  0.70  0.30  0.00  0.00  0.47  0.00
  YS02001757CaochengTiaoxuchi    1.00   0.00  0.07  0.00  0.93  0.00  0.00  0.00  0.00  0.00
  WSF200WS02003060        1.00   0.00  0.01  0.00  0.97  0.03  0.00  0.00  0.49  0.00
  1                       1.00   0.00  0.00  0.00  0.00  1.00  0.00  0.00  0.57  0.00
  
  
  *************************
  Conduit Surcharge Summary
  *************************
  
  ----------------------------------------------------------------------------
                                                           Hours        Hours 
                         --------- Hours Full --------   Above Full   Capacity
  Conduit                Both Ends  Upstream  Dnstream   Normal Flow   Limited
  ----------------------------------------------------------------------------
  WS02006229WS02006228        2.63      2.76      2.63      3.81         2.63
  WS02006256WS02006235        5.07      5.07      6.33      3.73         0.01
  WS02006253WS02006251        1.27      1.27      1.30      0.01         0.01
  WS02006252WS02006251        1.16      1.16      1.54      1.42         0.01
  WS02006251WS02006249        1.28      1.28      1.33      1.03         0.93
  WS02006249WS02006248        1.29      1.29      1.33      2.23         0.01
  WS02006248WS02006247        1.33      1.33      1.47      0.01         0.01
  WS02006247WS02006245        1.46      1.51      1.46      2.73         1.45
  WS02006245WS02006243        1.51      1.51      1.60      0.38         0.48
  WS02006243WS02006242        1.61      1.61      1.69      0.01         0.01
  WS02006242WS02006240        1.64      1.64      1.78      1.49         0.01
  WS02006240WS02006239        1.64      1.65      1.71      1.06         0.79
  WS02006239WS02006238        1.86      1.87      1.95      1.09         0.92
  WS02006238WS02006235        1.93      1.93      2.01      0.01         0.01
  WS02006235WS02006234        1.69      1.69      1.90      4.96         0.01
  WS02006234WS02006232        1.80      1.80      2.04      0.78         0.76
  WS02006232WS02006231        1.08      1.08      2.04      0.88         0.01
  WS02006231WS02006230        0.83      0.83      1.20      5.23         0.01
  WS02006230WS02006229        3.28      3.57      3.28      5.64         3.28
  WS02006228WS02006109        2.70      3.02      2.70      4.38         2.70
  WS02006112WS02006115        0.01      0.01      1.23      0.01         0.01
  WS02006111WS02006112        0.01      0.01      3.90      0.01         0.01
  WS02006110WS02006113        0.01      0.01      2.86      0.01         0.01
  WS02006109WS02006110        0.92      0.92      3.02      0.93         0.01
  WS02004405WS02004406        0.01      0.01      0.01      1.03         0.01
  WS02004404WS02004405        0.01      0.08      0.01      5.53         0.01
  WS02004403WS02004404        0.01      0.01      0.08      0.01         0.01
  WS02003072WS02003073        0.01      0.01      0.01      5.50         0.01
  YS02001759YS02001757        5.98      5.98      6.06      0.01         0.01
  YS02001762YS02001759        5.95      5.95      5.98      0.01         0.01
  YS02001765YS02001762        5.91      5.91      5.95      0.01         0.01
  YS02001770YS02001767        5.87      5.88      5.88      0.01         0.64
  YS02001774YS02001770        5.85      5.85      5.94      0.01         0.01
  YS02001779YS02001774        5.64      5.64      5.94      0.01         0.01
  YS02001649YS02001757        5.95      5.95      6.06      0.01         0.01
  YS02001767YS02001765        5.88      5.88      5.91      0.01         0.01
  YS02006561YS02001783        0.01      0.01      0.17      0.01         0.01
  YS02001783YS02001784        0.17      0.17      0.29      0.01         0.02
  YS02001784YS02001785        0.18      0.29      0.18      1.51         0.17
  YS02001788YS02001790        0.10      0.10      1.12      0.01         0.01
  YS02001790YS02001791        1.12      1.12      1.39      0.01         0.01
  YS02001791YS02001793        1.39      1.39      2.03      0.01         0.01
  YS02001910YS02001907        0.01      0.01      0.49      0.01         0.01
  YS02001786YS02001788        0.10      0.18      0.10      0.95         0.08
  YS02001629YS02163301        5.84      5.84      5.87      0.01         0.01
  YS02001619YS02001622        5.30      5.30      5.35      0.01         0.01
  YS02001622YS02001625        5.35      5.35      5.79      0.01         0.01
  YS02001625YS02001629        5.32      5.32      5.79      0.01         0.01
  YS02163301YS02001633        5.87      5.87      5.91      0.01         0.01
  YS02163601YS02164001        5.91      5.91      5.95      0.01         0.01
  YS02164001YS02001641        5.91      5.91      5.92      0.01         0.01
  YS02001641YS02001644        5.92      5.92      5.93      0.01         0.78
  YS02001647YS02001649        5.76      5.76      5.95      0.01         0.01
  YS02006553YS02006556        0.01      0.01      0.77      0.01         0.01
  YS02006556YS02006558        0.05      0.05      0.92      0.01         0.01
  YS02001907YS02006553        1.52      1.52      1.81      0.01         0.01
  YS02006558YS02006561        0.01      0.01      0.01      1.31         0.01
  YS02001633YS02163601        5.90      5.90      5.95      0.01         0.01
  YS02001644YS02001647        5.76      5.76      5.93      0.01         0.01
  YS02001745YS02001748        0.01      0.01      5.10      0.01         0.01
  YS02001748YS02001751        5.16      5.16      5.35      0.01         0.01
  YS02001751YS02001754        5.35      5.35      5.67      0.01         0.01
  YS02001754YS02001757        5.75      5.75      6.06      0.01         0.01
  YS02001904YS02001907        0.01      0.01      0.83      0.01         0.01
  YS02001652YS02001649        5.77      5.77      5.95      0.01         0.01
  YS02001655YS02001652        5.37      5.37      5.73      0.01         0.01
  YS02001658YS02001655        5.13      5.13      5.37      0.01         0.01
  YS02001661YS02001658        0.08      0.08      5.13      0.01         0.01
  YS02001664YS02001661        0.01      0.01      0.39      0.01         0.01
  HS02004881HS02006253        0.01      0.01      0.77      0.01         0.01
  YS02001793JiankangQianchi        1.86      1.86      5.71      0.01         0.01
  YS02001757CaochengTiaoxuchi        5.11      5.11      6.06      0.01         0.01
  
  
  ***************
  Pumping Summary
  ***************
  
  ---------------------------------------------------------------------------------------------------------
                                                  Min       Avg       Max     Total     Power    % Time Off
                        Percent   Number of      Flow      Flow      Flow    Volume     Usage    Pump Curve
  Pump                 Utilized   Start-Ups       LPS       LPS       LPS  10^6 ltr     Kw-hr    Low   High
  ---------------------------------------------------------------------------------------------------------
  CC-Pump-1               46.82           4      0.00    145.90    200.00     1.920      1.99    0.0    0.0
  CC-Pump-2               27.66           4      0.00    114.94    200.00     1.080      1.44    0.0    0.0
  JK-Pump-1               53.20           5      0.00    218.84    300.00     3.054     50.01    0.0    0.0
  JK-Pump-2               38.30           5      0.00    344.75    683.00     3.672     62.75    0.0   94.9
  XR-Pump-1               97.88           1      0.00     93.68     95.00     2.594     43.58    0.0    0.0
  XR-Pump-2               95.75           2      0.00     90.42     95.00     2.366     38.72    0.0    0.0
  XR-Pump-3               93.62           2      0.00     89.81     95.00     2.309     37.28    0.0    0.0
  XR-Pump-4               93.62           2      0.00     89.81     95.00     2.309     37.28    0.0    0.0
  
  
  ***************************
  Link Pollutant Load Summary
  ***************************
  
  ------------------------------------------------------------------------------------------
                                 COD            SS            TN            TP         NH4-N
  Link                            kg            kg            kg            kg            kg
  ------------------------------------------------------------------------------------------
  WS02003066WSF200           515.595       904.225        16.023         1.501         8.727
  WS02006287WS02006284       163.225       287.683         7.336         0.797         4.253
  WS02006284WS02006280       163.745       288.518         7.384         0.803         4.283
  WS02006280WS02006229       163.719       288.474         7.382         0.802         4.282
  WS02006229WS02006228       523.574       916.396        16.060         1.491         8.719
  WS02006256WS02006235       133.405       229.410         3.622         0.313         1.921
  WS02006253WS02006251        29.184        53.660         0.717         0.056         0.364
  WS02006252WS02006251       220.592       385.725         4.876         0.360         2.421
  WS02006251WS02006249       244.541       430.258         5.490         0.410         2.737
  WS02006249WS02006248       230.475       405.578         5.174         0.386         2.579
  WS02006248WS02006247       230.675       405.944         5.179         0.387         2.582
  WS02006247WS02006245       230.513       405.666         5.174         0.386         2.579
  WS02006245WS02006243       230.013       404.850         5.157         0.385         2.570
  WS02006243WS02006242       230.356       405.498         5.165         0.385         2.574
  WS02006242WS02006240       230.798       406.250         5.176         0.386         2.579
  WS02006240WS02006239       232.687       409.470         5.232         0.391         2.609
  WS02006239WS02006238       235.774       414.598         5.332         0.401         2.665
  WS02006238WS02006235       237.865       418.035         5.397         0.407         2.700
  WS02006235WS02006234       361.151       630.197         8.720         0.693         4.460
  WS02006234WS02006232       361.204       630.233         8.728         0.694         4.466
  WS02006232WS02006231       360.920       629.758         8.718         0.693         4.460
  WS02006231WS02006230       360.612       629.276         8.705         0.692         4.453
  WS02006230WS02006229       360.562       629.146         8.710         0.692         4.456
  WS02006228WS02006109       523.242       915.837        16.043         1.489         8.709
  WS02006116WS02004401       530.896       928.911        16.676         1.569         9.101
  WS02006115WS02006116       531.901       930.503        16.713         1.572         9.122
  WS02006113WS02006111       529.896       926.418        16.750         1.579         9.154
  WS02006112WS02006115       533.155       932.555        16.777         1.580         9.160
  WS02006111WS02006112       529.687       926.083        16.743         1.578         9.150
  WS02006110WS02006113       530.376       927.212        16.779         1.582         9.171
  WS02006109WS02006110       531.416       928.908        16.847         1.590         9.213
  WS02004411WS02004412       520.486       912.249        16.269         1.529         8.872
  WS02004401WS02004402       529.523       926.672        16.613         1.562         9.065
  WS02004413WS02003067       516.589       905.823        16.070         1.507         8.754
  WS02004412WS02004413       518.945       909.766        16.194         1.520         8.828
  WS02004410WS02004411       521.696       914.175        16.327         1.535         8.905
  WS02004409WS02004410       522.899       916.106        16.384         1.541         8.938
  WS02004407WS02004409       523.835       917.572        16.422         1.545         8.960
  WS02004406WS02004407       524.091       917.941        16.427         1.545         8.963
  WS02004405WS02004406       526.576       921.970        16.573         1.562         9.050
  WS02004404WS02004405       527.491       923.378        16.582         1.561         9.052
  WS02004403WS02004404       527.088       922.730        16.508         1.551         9.005
  WS02004402WS02004403       528.312       924.727        16.565         1.557         9.037
  WS02004139WS02001211      1434.901      2318.632       128.399        15.880        79.748
  WS02004138WS02004139      1436.170      2320.699       128.503        15.893        79.812
  WS02003067WS02003066       515.887       904.712        16.037         1.503         8.735
  WS02001213WS02003059      1478.937      2389.024       132.657        16.413        82.411
  WS02001212WS02001213      1484.427      2397.870       133.156        16.475        82.721
  WS02001211WS02001212      1483.891      2397.000       133.110        16.469        82.692
  WS02003072WS02003073      2104.359      3468.748       159.445        19.264        97.875
  WS02003069WS02003072      2107.590      3474.003       159.704        19.296        98.034
  WS02003060WS02003069      2107.519      3473.960       159.625        19.284        97.982
  WS02003059WS02003060      1478.829      2388.828       132.659        16.414        82.412
  HS02004901HS02004770         5.095         9.256         0.099         0.007         0.046
  HS02004876HS02004881        19.730        36.661         0.500         0.039         0.254
  HS02004870HS02004876        14.972        27.716         0.416         0.034         0.215
  HS02004842HS02004848         3.065         5.506         0.067         0.004         0.030
  HS02004837HS02004842         7.708        12.892         0.537         0.064         0.326
  HS02004830HS02004837        55.013        91.145         4.358         0.532         2.689
  HS02004824HS02004830        55.764        92.348         4.430         0.541         2.734
  HS02004817HS02004824        67.286       114.026         4.679         0.556         2.856
  HS02004770HS02004777        19.682        36.141         0.425         0.028         0.193
  HS02004799HS02004480        72.652       128.833         2.550         0.253         1.401
  HS02004792HS02004799        66.427       116.763         2.481         0.253         1.378
  HS02004788HS02004792        40.748        71.579         1.840         0.196         1.053
  HS02004785HS02004788        21.096        38.396         0.573         0.047         0.287
  HS02004777HS02004785        20.429        37.326         0.512         0.039         0.249
  HS02004480HS02004478        90.169       161.695         2.806         0.269         1.515
  HS02004479HS02004480        21.118        38.645         0.570         0.054         0.308
  HS02004862HS02004870        11.104        20.161         0.339         0.030         0.178
  HS02004848HS02004852         3.707         6.688         0.080         0.005         0.036
  HS02004856HS02004862         6.889        12.820         0.142         0.009         0.066
  HS02004852HS02004856         3.718         6.708         0.080         0.005         0.037
  HS02004802HS02004478        73.982       127.498         4.595         0.536         2.778
  HS02004478WS02006287       163.419       287.997         7.354         0.799         4.264
  HS02004817HS02004807        65.871       111.776         4.537         0.539         2.767
  HS02004807HS02004802        74.169       127.788         4.627         0.540         2.798
  YS02001759YS02001757       240.312       421.127         5.048         0.347         2.481
  YS02001762YS02001759       120.519       212.705         2.744         0.193         1.372
  YS02001765YS02001762       120.139       211.996         2.756         0.195         1.381
  YS02001770YS02001767       117.756       208.132         2.457         0.155         1.190
  YS02001774YS02001770        13.666        24.400         0.290         0.019         0.142
  YS02001779YS02001774        12.682        22.317         0.393         0.035         0.214
  YS02001649YS02001757       246.237       418.092         5.170         0.363         2.485
  YS02001767YS02001765       120.274       212.172         2.772         0.196         1.390
  YS02006561YS02001783       500.042       870.398        11.749         0.927         6.006
  YS02001783YS02001784       500.021       870.387        11.746         0.926         6.004
  YS02001784YS02001785       507.355       882.129        12.458         1.016         6.450
  YS02001788YS02001790       508.531       884.028        12.580         1.031         6.526
  YS02001790YS02001791       509.768       886.032        12.703         1.046         6.603
  YS02001791YS02001793       509.797       886.096        12.700         1.046         6.602
  YS02001910YS02001907       169.475       290.732         5.124         0.441         2.755
  YS02001786YS02001788       507.615       882.560        12.488         1.019         6.468
  YS02001915YS02001910       169.501       290.741         5.086         0.436         2.730
  YS02001918YS02001915        83.021       136.301         3.220         0.332         1.839
  YS02001923YS02001920        63.099       104.472         1.275         0.088         0.622
  YS02001926YS02001923        62.751       103.917         1.236         0.083         0.598
  YS02001929YS02001926        62.510       103.520         1.205         0.079         0.578
  YS02001920YS02001918        83.006       136.325         3.193         0.328         1.821
  YS02001629YS02163301        68.027       116.024         1.465         0.093         0.680
  YS02001619YS02001622        71.185       120.933         1.541         0.097         0.714
  YS02001622YS02001625        70.155       119.348         1.516         0.096         0.702
  YS02001625YS02001629        69.011       117.638         1.487         0.094         0.689
  YS02163301YS02001633        67.983       115.964         1.463         0.093         0.679
  YS02163601YS02164001       190.623       323.383         3.934         0.275         1.883
  YS02164001YS02001641       190.270       322.804         3.917         0.273         1.873
  YS02001641YS02001644       190.663       323.431         3.918         0.273         1.873
  YS02001647YS02001649       213.757       362.029         4.429         0.309         2.132
  YS02006553YS02006556       361.339       627.025         8.766         0.714         4.541
  YS02006556YS02006558       361.313       626.974         8.730         0.709         4.517
  YSB6556YSB1171              11.789        21.714         0.266         0.023         0.139
  YS02001907YS02006553       361.319       626.999         8.788         0.717         4.556
  YS02006558YS02006561       500.051       870.407        11.749         0.927         6.006
  YS02001633YS02163601       191.233       324.297         3.913         0.271         1.866
  YS02001644YS02001647       218.787       370.411         4.503         0.315         2.164
  YS02001745YS02001748       107.431       186.459         2.874         0.223         1.495
  YS02001748YS02001751       105.831       183.469         2.942         0.236         1.546
  YS02001751YS02001754       104.998       182.145         2.928         0.236         1.540
  YS02001754YS02001757       105.826       183.437         3.091         0.258         1.645
  YS02001882YS02001884         1.981         3.325         0.041         0.003         0.020
  YS02001884YS02001887         4.693         8.018         0.095         0.007         0.047
  YS02001890YS02001895       192.958       337.897         3.689         0.278         1.813
  YS02001895YS02001898       192.791       337.653         3.683         0.277         1.810
  YS02001898YS02001901       192.683       337.501         3.680         0.277         1.808
  YS02001901YS02001904       192.583       337.374         3.688         0.278         1.814
  YS02001904YS02001907       192.957       338.009         3.742         0.285         1.848
  YS02001887YS02001890       193.769       339.143         3.743         0.284         1.846
  YS02001652YS02001649        65.663       112.585         1.446         0.104         0.679
  YS02001655YS02001652        66.626       114.102         1.472         0.106         0.691
  YS02001658YS02001655        66.390       113.664         1.393         0.095         0.638
  YS02001661YS02001658        72.038       123.483         1.510         0.103         0.692
  YS02001664YS02001661        84.952       145.364         1.786         0.122         0.818
  YSB1154YSB6556              11.374        21.048         0.219         0.017         0.109
  YSB1174YSB1171               7.816        14.502         0.172         0.015         0.088
  YSB1171HS02004479           21.056        38.536         0.574         0.055         0.311
  HS02004881HS02006253        22.354        41.723         0.542         0.042         0.273
  YS02001793JiankangQianchi       509.888       886.249        12.701         1.046         6.602
  YS02001757CaochengTiaoxuchi       489.035       847.126        10.866         0.793         5.384
  WSF200WS02003060           515.272       903.700        16.021         1.502         8.727
  1                         2115.459      3486.352       160.674        19.420        98.649
  CC-Pump-1                  140.637       245.831         3.104         0.229         1.541
  CC-Pump-2                   79.788       139.622         1.761         0.130         0.874
  JK-Pump-1                  146.310       251.049         3.994         0.346         2.120
  JK-Pump-2                  205.105       358.598         4.942         0.400         2.549
  XR-Pump-1                  400.724       646.935        36.086         4.467        22.425
  XR-Pump-2                  352.382       569.575        31.462         3.890        19.537
  XR-Pump-3                  342.901       554.301        30.602         3.783        19.002
  XR-Pump-4                  342.901       554.301        30.602         3.783        19.002
  

  Analysis begun on:  Sat Jul 10 15:27:01 2021
  Analysis ended on:  Sat Jul 10 15:27:04 2021
  Total elapsed time: 00:00:03