
  EPA STORM WATER MANAGEMENT MODEL - VERSION 5.1 (Build 5.3.0.dev0)
  --------------------------------------------------------------

  WARNING 04: minimum elevation drop used for Conduit WS02004404WS02004405
  WARNING 03: negative offset ignored for Link YS02001904YS02001907
  
  *********************************************************
  NOTE: The summary statistics displayed in this report are
  based on results found at every computational time step,  
  not just on results from each reporting time step.
  *********************************************************
  
  ****************
  Analysis Options
  ****************
  Flow Units ............... LPS
  Process Models:
    Rainfall/Runoff ........ YES
    RDII ................... NO
    Snowmelt ............... NO
    Groundwater ............ NO
    Flow Routing ........... YES
    Ponding Allowed ........ NO
    Water Quality .......... YES
  Infiltration Method ...... HORTON
  Flow Routing Method ...... DYNWAVE
  Surcharge Method ......... EXTRAN
  Starting Date ............ 08/28/2015 08:00:00
  Ending Date .............. 08/28/2015 16:00:00
  Antecedent Dry Days ...... 8.0
  Report Time Step ......... 00:01:00
  Wet Time Step ............ 00:01:00
  Dry Time Step ............ 00:01:00
  Routing Time Step ........ 5.00 sec
  Variable Time Step ....... YES
  Maximum Trials ........... 8
  Number of Threads ........ 4
  Head Tolerance ........... 0.001500 m
  
  
  **************************        Volume         Depth
  Runoff Quantity Continuity     hectare-m            mm
  **************************     ---------       -------
  Total Precipitation ......         6.144        13.452
  Evaporation Loss .........         0.000         0.000
  Infiltration Loss ........         1.067         2.336
  Surface Runoff ...........         4.170         9.131
  Final Storage ............         0.908         1.988
  Continuity Error (%) .....        -0.019
  
  
  **************************           COD            SS            TN            TP         NH4-N
  Runoff Quality Continuity             kg            kg            kg            kg            kg
  **************************    ----------    ----------    ----------    ----------    ----------
  Initial Buildup ..........     41378.656     70582.865      1804.177       168.684      1032.807
  Surface Buildup ..........        23.281        44.448         2.437         0.221         1.414
  Wet Deposition ...........         0.000         0.000         0.000         0.000         0.000
  Sweeping Removal .........         0.000         0.000         0.000         0.000         0.000
  Infiltration Loss ........        98.083       186.386         1.865         0.131         0.889
  BMP Removal ..............         0.000         0.000         0.000         0.000         0.000
  Surface Runoff ...........      3781.731      7084.237        73.043         4.981        34.722
  Remaining Buildup ........     37520.712     63353.973      1731.679       163.791       998.597
  Continuity Error (%) .....         0.003         0.004         0.002         0.001         0.001
  
  
  **************************        Volume        Volume
  Flow Routing Continuity        hectare-m      10^6 ltr
  **************************     ---------     ---------
  Dry Weather Inflow .......         0.630         6.296
  Wet Weather Inflow .......         4.169        41.692
  Groundwater Inflow .......         0.000         0.000
  RDII Inflow ..............         0.000         0.000
  External Inflow ..........         0.105         1.045
  External Outflow .........         1.835        18.349
  Flooding Loss ............         2.613        26.127
  Evaporation Loss .........         0.000         0.000
  Exfiltration Loss ........         0.000         0.000
  Initial Stored Volume ....         0.076         0.761
  Final Stored Volume ......         0.637         6.370
  Continuity Error (%) .....        -2.112
  
  
  **************************           COD            SS            TN            TP         NH4-N
  Quality Routing Continuity            kg            kg            kg            kg            kg
  **************************    ----------    ----------    ----------    ----------    ----------
  Dry Weather Inflow .......      1573.993      2518.389       151.103        18.888        94.440
  Wet Weather Inflow .......      3781.279      7083.560        73.032         4.981        34.717
  Groundwater Inflow .......         0.000         0.000         0.000         0.000         0.000
  RDII Inflow ..............         0.000         0.000         0.000         0.000         0.000
  External Inflow ..........       187.321       299.713        17.983         2.248        11.239
  External Outflow .........      2267.950      3906.564       149.263        17.663        90.554
  Flooding Loss ............      2569.277      4768.107        65.044         5.596        34.021
  Exfiltration Loss ........         0.000         0.000         0.000         0.000         0.000
  Mass Reacted .............         0.000         0.000         0.000         0.000         0.000
  Initial Stored Mass ......         0.000         0.000         0.000         0.000         0.000
  Final Stored Mass ........       596.398      1042.734        25.038         2.637        14.401
  Continuity Error (%) .....         1.966         1.861         1.145         0.845         1.012
  
  
  *************************
  Highest Continuity Errors
  *************************
  Node HS02004842 (13.40%)
  Node YS02001884 (11.07%)
  Node JK-storage (-9.88%)
  Node HS02004817 (2.52%)
  Node YSB1171 (2.46%)
  
  
  ***************************
  Time-Step Critical Elements
  ***************************
  Link WS02006252WS02006251 (39.51%)
  Link WS02006280WS02006229 (14.72%)
  Link WS02006238WS02006235 (11.21%)
  Link YS02006556YS02006558 (8.70%)
  Link YS02001793JiankangQianchi (5.66%)
  
  
  ********************************
  Highest Flow Instability Indexes
  ********************************
  Link WS02006113WS02006111 (47)
  Link YS02163601YS02164001 (35)
  Link YS02001619YS02001622 (33)
  Link YS02001629YS02163301 (33)
  Link YS02164001YS02001641 (33)
  
  
  *************************
  Routing Time Step Summary
  *************************
  Minimum Time Step           :     0.28 sec
  Average Time Step           :     1.55 sec
  Maximum Time Step           :     5.00 sec
  Percent in Steady State     :    -0.00
  Average Iterations per Step :     4.19
  Percent Not Converging      :    18.85
  
  
  ***************************
  Subcatchment Runoff Summary
  ***************************
  
  ------------------------------------------------------------------------------------------------------------------------------
                            Total      Total      Total      Total     Imperv       Perv      Total       Total     Peak  Runoff
                           Precip      Runon       Evap      Infil     Runoff     Runoff     Runoff      Runoff   Runoff   Coeff
  Subcatchment                 mm         mm         mm         mm         mm         mm         mm    10^6 ltr      LPS
  ------------------------------------------------------------------------------------------------------------------------------
  sub0                      13.45       0.00       0.00       0.63      12.47       0.31      12.78        0.01     3.75   0.950
  sub1                      13.45       0.00       0.00       1.12      11.88       0.36      12.24        0.08    25.66   0.910
  sub2                      13.45       0.00       0.00       4.44       8.39       0.53       8.92        0.08    25.29   0.663
  sub3                      13.45       0.00       0.00       4.56       8.35       0.42       8.77        0.20    55.75   0.652
  sub4                      13.45       0.00       0.00       1.22      11.72       0.26      11.98        0.25    65.52   0.890
  sub5                      13.45       0.00       0.00       0.68      12.41       0.26      12.67        0.14    44.76   0.942
  sub7                      13.45       0.00       0.00       0.86      12.18       0.35      12.53        0.04    14.26   0.931
  sub8                      13.45       0.00       0.00       0.87      12.17       0.34      12.51        0.08    26.26   0.930
  sub9                      13.45       0.00       0.00       0.88      12.17       0.33      12.50        0.06    19.64   0.929
  sub10                     13.45       0.00       0.00       0.78      12.29       0.29      12.58        0.14    44.00   0.935
  sub11                     13.45       0.00       0.00       0.77      12.31       0.31      12.62        0.15    48.45   0.938
  sub12                     13.45       0.00       0.00       1.25      11.66       0.50      12.16        0.11    38.10   0.904
  sub14                     13.45       0.00       0.00       0.88      12.17       0.33      12.50        0.12    38.67   0.929
  sub15                     13.45       0.00       0.00       3.37       9.35       0.66      10.02        0.17    57.01   0.745
  sub16                     13.45       0.00       0.00       3.56       8.97       0.88       9.85        0.10    37.63   0.732
  sub17                     13.45       0.00       0.00       3.47       9.11       0.84       9.94        0.09    30.67   0.739
  sub22                     13.45       0.00       0.00       4.98       7.63       0.81       8.43        0.53   184.54   0.627
  sub23                     13.45       0.00       0.00       4.17       8.43       0.81       9.24        0.44   154.22   0.687
  sub60                     13.45       0.00       0.00       1.53       9.91       0.09      10.00        3.03   438.14   0.743
  sub61                     13.45       0.00       0.00       2.16       9.99       0.12      10.12        3.12   536.45   0.752
  sub62                     13.45       0.00       0.00       0.98      10.89       0.10      10.99        3.38   552.35   0.817
  sub63                     13.45       0.00       0.00       3.77       8.72       0.14       8.86        2.68   492.63   0.659
  sub64                     13.45       0.00       0.00       1.93       9.52       0.09       9.60        2.92   416.72   0.714
  sub65                     13.45       0.00       0.00       1.67       9.68       0.08       9.76        3.00   423.09   0.726
  sub66                     13.45       0.00       0.00       3.81       8.14       0.09       8.23        2.52   380.66   0.612
  sub67                     13.45       0.00       0.00       0.95      11.42       0.13      11.55        3.56   679.52   0.859
  sub68                     13.45       0.00       0.00       1.75      10.49       0.13      10.63        3.27   586.26   0.790
  sub69                     13.45       0.00       0.00       1.83      10.82       0.19      11.00        2.57   544.72   0.818
  sub70                     13.45      11.23       0.00       7.51      14.72       0.88      15.60        3.57   494.81   0.632
  sub71                     13.45       0.00       0.00       0.99      10.64       0.09      10.73        2.53   389.24   0.797
  sub72                     13.45       0.00       0.00       0.89       8.66       0.05       8.71        1.77   189.18   0.647
  1                         13.45      15.19       0.00       1.40      16.69       4.72      21.41        5.03   484.42   0.747
  2                         13.45       0.00       0.00       3.09       3.22       2.00       5.21        2.09   340.45   0.388
  
  
  ****************************
  Subcatchment Washoff Summary
  ****************************
  
  ------------------------------------------------------------------------------------------
                                 COD            SS            TN            TP         NH4-N
  Subcatchment                    kg            kg            kg            kg            kg
  ------------------------------------------------------------------------------------------
  sub0                         2.670         5.197         0.046         0.004         0.022
  sub1                        11.241        22.423         0.210         0.015         0.101
  sub2                         6.894        13.384         0.145         0.010         0.067
  sub3                        16.925        32.575         0.350         0.024         0.161
  sub4                        25.776        51.909         0.510         0.031         0.245
  sub5                        25.778        50.682         0.460         0.035         0.223
  sub7                         5.751        11.638         0.108         0.007         0.052
  sub8                         8.581        17.755         0.171         0.010         0.082
  sub9                         7.353        15.005         0.142         0.009         0.068
  sub10                       21.202        42.223         0.389         0.028         0.188
  sub11                       20.657        41.614         0.386         0.026         0.187
  sub12                       17.724        35.094         0.321         0.024         0.155
  sub14                       15.732        31.800         0.298         0.020         0.144
  sub15                       20.231        39.321         0.389         0.028         0.182
  sub16                       13.129        25.518         0.249         0.019         0.117
  sub17                       12.049        23.208         0.222         0.017         0.105
  sub22                       62.582       119.432         1.186         0.090         0.554
  sub23                       36.683        72.439         0.776         0.051         0.357
  sub60                      244.233       458.081         4.859         0.299         2.329
  sub61                      302.589       565.081         5.636         0.387         2.714
  sub62                      314.305       596.969         6.133         0.389         2.945
  sub63                      223.526       411.212         4.475         0.315         2.078
  sub64                      306.737       555.076         5.644         0.411         2.696
  sub65                      313.964       570.480         5.815         0.416         2.782
  sub66                      176.514       322.016         3.620         0.237         1.692
  sub67                      466.622       878.076         8.374         0.617         4.049
  sub68                      332.446       627.017         6.357         0.430         3.039
  sub69                      298.415       568.781         5.594         0.394         2.676
  sub70                      504.505       965.080        10.073         0.701         4.726
  sub71                      207.253       397.131         4.255         0.247         2.036
  sub72                      165.509       294.907         3.092         0.212         1.487
  1                          354.118       681.081         7.206         0.502         3.346
  2                           42.953        75.895         1.221         0.074         0.521
  ------------------------------------------------------------------------------------------
  System                    4584.651      8618.098        88.709         6.077        42.125
  
  
  ******************
  Node Depth Summary
  ******************
  
  ---------------------------------------------------------------------------------
                                 Average  Maximum  Maximum  Time of Max    Reported
                                   Depth    Depth      HGL   Occurrence   Max Depth
  Node                 Type       Meters   Meters   Meters  days hr:min      Meters
  ---------------------------------------------------------------------------------
  WS02001211           JUNCTION     0.77     0.84     5.68     0  03:12        0.84
  WS02001212           JUNCTION     0.47     0.57     5.63     0  03:11        0.57
  WS02001213           JUNCTION     0.71     0.84     5.60     0  03:11        0.84
  WS02003069           JUNCTION     0.49     0.70     5.28     0  03:10        0.70
  WS02003072           JUNCTION     0.56     0.74     5.12     0  03:11        0.74
  WS02003073           JUNCTION     0.34     0.47     4.53     0  03:11        0.47
  WS02003060           JUNCTION     0.44     0.62     5.55     0  03:10        0.62
  WS02003066           JUNCTION     0.23     0.38     5.93     0  03:08        0.38
  WS02003059           JUNCTION     0.76     0.89     5.58     0  03:11        0.89
  WS02003067           JUNCTION     0.56     0.81     6.13     0  03:07        0.81
  WS02004401           JUNCTION     0.69     1.21     7.21     0  03:05        1.18
  WS02004402           JUNCTION     0.71     1.20     7.16     0  03:05        1.18
  WS02004403           JUNCTION     0.73     1.18     7.11     0  03:05        1.16
  WS02004404           JUNCTION     0.80     1.23     7.08     0  03:05        1.21
  WS02004406           JUNCTION     0.81     1.16     6.99     0  03:05        1.14
  WS02004409           JUNCTION     0.49     0.92     6.69     0  03:08        0.92
  WS02004410           JUNCTION     0.51     0.91     6.63     0  03:08        0.91
  WS02004411           JUNCTION     0.52     0.90     6.58     0  03:08        0.90
  WS02004412           JUNCTION     0.53     0.88     6.52     0  03:08        0.88
  WS02004413           JUNCTION     0.69     1.00     6.47     0  03:08        1.00
  WS02004405           JUNCTION     0.80     1.21     7.06     0  03:05        1.19
  WS02006109           JUNCTION     0.78     1.54     8.16     0  03:05        1.52
  WS02006110           JUNCTION     0.76     1.40     7.98     0  03:05        1.34
  WS02006111           JUNCTION     0.23     0.85     7.56     0  03:05        0.82
  WS02006112           JUNCTION     0.86     1.52     7.40     0  03:05        1.49
  WS02006113           JUNCTION     0.35     0.93     7.82     0  03:05        0.84
  WS02006115           JUNCTION     0.58     1.18     7.32     0  03:05        1.16
  WS02006116           JUNCTION     0.66     1.24     7.28     0  03:05        1.20
  WS02006230           JUNCTION     0.77     1.75     8.49     0  03:06        1.74
  WS02006231           JUNCTION     0.52     1.41     8.54     0  03:06        1.41
  WS02006232           JUNCTION     0.65     1.53     8.57     0  03:06        1.53
  WS02006234           JUNCTION     0.58     1.45     8.61     0  03:05        1.45
  WS02006235           JUNCTION     0.61     1.48     8.65     0  03:06        1.47
  WS02006238           JUNCTION     0.63     1.50     8.64     0  03:05        1.50
  WS02006240           JUNCTION     0.53     1.37     8.66     0  03:05        1.36
  WS02006242           JUNCTION     0.57     1.40     8.67     0  03:05        1.40
  WS02006243           JUNCTION     0.45     1.25     8.67     0  03:06        1.25
  WS02006245           JUNCTION     0.42     1.20     8.69     0  03:03        1.19
  WS02006247           JUNCTION     0.43     1.21     8.71     0  03:03        1.18
  WS02006248           JUNCTION     0.37     1.10     8.69     0  03:03        1.10
  WS02006249           JUNCTION     0.39     1.09     8.69     0  03:03        1.09
  WS02006239           JUNCTION     0.58     1.45     8.65     0  03:05        1.44
  WS02006251           JUNCTION     0.36     1.62     9.29     0  03:04        1.14
  WS02006252           JUNCTION     0.22     1.08     9.33     0  03:04        0.69
  WS02006253           JUNCTION     0.39     2.06     9.71     0  03:04        1.16
  WS02006256           JUNCTION     1.71     2.35     9.28     0  00:32        2.35
  WS02004138           JUNCTION     0.19     0.20     7.45     0  00:00        0.19
  WS02004139           JUNCTION     0.71     0.78     5.69     0  03:12        0.78
  WS02004407           JUNCTION     0.22     0.39     6.70     0  03:06        0.39
  WS02006228           JUNCTION     0.79     1.69     8.34     0  03:06        1.68
  WS02006229           JUNCTION     0.77     1.75     8.45     0  03:06        1.74
  WS02006280           JUNCTION     0.08     0.28     8.55     0  03:06        0.28
  WS02006284           JUNCTION     0.38     0.65     9.04     0  03:02        0.64
  WS02006287           JUNCTION     0.11     0.39     9.34     0  03:02        0.39
  WSF200               JUNCTION     0.21     0.42     5.65     0  03:08        0.42
  HS02004901           JUNCTION     0.14     0.38    10.20     0  03:01        0.37
  HS02004881           JUNCTION     0.01     0.05     9.08     0  03:04        0.05
  HS02004876           JUNCTION     0.05     0.16     9.19     0  03:01        0.16
  HS02004870           JUNCTION     0.02     0.09     9.38     0  03:01        0.09
  HS02004862           JUNCTION     0.02     0.11     9.49     0  03:01        0.11
  HS02004856           JUNCTION     0.08     0.15     9.58     0  03:01        0.15
  HS02004852           JUNCTION     0.01     0.07     9.59     0  03:02        0.07
  HS02004848           JUNCTION     0.01     0.07     9.67     0  03:01        0.07
  HS02004842           JUNCTION     0.34     0.40     9.67     0  03:01        0.40
  HS02004837           JUNCTION     0.03     0.09     9.67     0  03:01        0.09
  HS02004830           JUNCTION     0.04     0.10     9.57     0  03:01        0.10
  HS02004824           JUNCTION     0.03     0.13     9.53     0  03:02        0.13
  HS02004817           JUNCTION     0.45     0.69     9.54     0  03:02        0.69
  HS02004807           JUNCTION     0.14     0.36     9.53     0  03:02        0.36
  HS02004802           JUNCTION     0.17     0.39     9.52     0  03:02        0.39
  HS02004799           JUNCTION     0.14     0.46     9.68     0  03:01        0.46
  HS02004792           JUNCTION     0.04     0.22     9.74     0  03:01        0.21
  HS02004788           JUNCTION     0.03     0.16    10.05     0  03:02        0.16
  HS02004785           JUNCTION     0.06     0.25    10.15     0  03:02        0.25
  HS02004777           JUNCTION     0.16     0.39    10.19     0  03:01        0.39
  HS02004770           JUNCTION     0.13     0.37    10.20     0  03:01        0.36
  HS02004480           JUNCTION     0.10     0.38     9.62     0  03:01        0.38
  HS02004479           JUNCTION     0.13     0.42     9.62     0  03:01        0.42
  HS02004478           JUNCTION     0.07     0.28     9.50     0  03:01        0.28
  YS02001745           JUNCTION     0.71     0.96     8.48     0  03:01        0.96
  YS02001748           JUNCTION     1.09     2.24     9.32     0  02:32        1.39
  YS02001751           JUNCTION     1.27     2.15     9.03     0  02:32        1.58
  YS02001754           JUNCTION     1.52     2.08     8.69     0  02:32        1.84
  YS02001762           JUNCTION     1.72     2.11     8.51     0  04:04        2.05
  YS02001765           JUNCTION     1.67     2.06     8.51     0  04:04        1.99
  YS02001767           JUNCTION     1.64     2.00     8.49     0  04:04        1.94
  YS02001770           JUNCTION     1.63     1.95     8.44     0  04:04        1.93
  YS02001774           JUNCTION     1.70     2.00     8.42     0  04:04        1.98
  YS02001779           JUNCTION     1.44     1.68     8.37     0  02:40        1.68
  YS02001882           JUNCTION     0.58     1.64     8.35     0  02:48        1.63
  YS02001884           JUNCTION     0.68     1.74     8.35     0  03:00        1.73
  YS02001759           JUNCTION     1.75     2.13     8.50     0  04:04        2.08
  YS02001887           JUNCTION     0.76     1.81     8.35     0  03:00        1.81
  YS02001890           JUNCTION     0.78     1.81     8.32     0  02:48        1.81
  YS02001898           JUNCTION     0.55     1.56     8.30     0  02:48        1.56
  YS02001901           JUNCTION     0.67     1.68     8.29     0  02:51        1.67
  YS02001904           JUNCTION     0.65     1.64     8.27     0  02:51        1.64
  YS02001907           JUNCTION     0.97     1.96     8.25     0  02:48        1.96
  YS02001910           JUNCTION     0.77     1.82     8.32     0  02:49        1.80
  YS02001915           JUNCTION     0.57     1.66     8.38     0  02:49        1.61
  YS02001918           JUNCTION     0.32     1.40     8.47     0  02:49        1.32
  YS02001619           JUNCTION     1.24     1.51     8.44     0  02:32        1.48
  YS02001629           JUNCTION     1.58     1.85     8.40     0  02:36        1.84
  YS02001641           JUNCTION     1.68     1.93     8.37     0  03:38        1.93
  YS02001644           JUNCTION     1.68     1.92     8.35     0  02:39        1.92
  YS02001652           JUNCTION     1.53     2.09     8.69     0  04:26        1.91
  YS02001655           JUNCTION     1.30     2.20     9.05     0  02:25        1.71
  YS02001920           JUNCTION     0.41     1.49     8.50     0  02:49        1.41
  YS02001923           JUNCTION     0.25     1.28     8.54     0  02:49        1.18
  YS02001926           JUNCTION     0.30     1.44     8.89     0  02:49        0.96
  YS02001929           JUNCTION     0.17     0.84     8.53     0  02:49        0.72
  YS02001658           JUNCTION     1.04     2.09     9.23     0  04:26        1.45
  YS02001661           JUNCTION     0.81     1.99     9.40     0  04:26        1.16
  YS02001664           JUNCTION     0.36     0.57     8.49     0  04:22        0.56
  YS02001622           JUNCTION     1.26     1.52     8.42     0  02:35        1.50
  YS02001633           JUNCTION     1.67     1.95     8.40     0  02:58        1.94
  YS02001649           JUNCTION     1.73     2.05     8.44     0  02:42        2.05
  YS02001757           JUNCTION     1.85     2.20     8.46     0  04:04        2.18
  YS02001895           JUNCTION     0.55     1.57     8.31     0  03:04        1.56
  YS02001625           JUNCTION     1.54     1.78     8.38     0  02:31        1.78
  YS02163301           JUNCTION     1.61     1.88     8.40     0  03:05        1.88
  YS02163601           JUNCTION     1.72     1.99     8.39     0  02:40        1.98
  YS02164001           JUNCTION     1.66     1.92     8.38     0  04:04        1.91
  YS02001647           JUNCTION     1.51     1.80     8.41     0  02:49        1.79
  YSB1154              JUNCTION     0.27     0.57     9.62     0  03:01        0.57
  YSB6556              JUNCTION     0.16     0.45     9.62     0  03:02        0.45
  YSB1174              JUNCTION     0.22     0.52     9.62     0  03:01        0.51
  YSB1171              JUNCTION     0.42     0.72     9.62     0  03:01        0.72
  YS02006553           JUNCTION     0.97     1.97     8.26     0  03:00        1.97
  YS02006561           JUNCTION     0.33     1.25     7.91     0  02:46        1.09
  YS02006556           JUNCTION     0.94     1.94     8.25     0  03:00        1.93
  YS02006558           JUNCTION     0.98     1.98     8.25     0  03:00        1.97
  YS02001783           JUNCTION     0.54     1.60     7.74     0  02:46        1.47
  YS02001784           JUNCTION     0.55     1.57     7.64     0  02:46        1.42
  YS02001786           JUNCTION     0.48     1.72     7.75     0  02:46        1.26
  YS02001788           JUNCTION     0.41     2.01     7.99     0  02:46        1.13
  YS02001790           JUNCTION     0.50     1.84     7.48     0  02:46        1.29
  YS02001791           JUNCTION     0.45     1.58     7.05     0  02:46        1.27
  YS02001793           JUNCTION     0.58     1.96     6.79     0  02:46        1.80
  WSC                  OUTFALL      0.34     0.47     1.14     0  03:12        0.47
  JK-storage           STORAGE      2.48     5.80     6.60     0  02:46        5.80
  CC-storage           STORAGE      1.11     1.44     8.44     0  03:09        1.44
  XR-storage           STORAGE      6.28     7.72     5.72     0  02:59        7.72
  
  
  *******************
  Node Inflow Summary
  *******************
  
  -------------------------------------------------------------------------------------------------
                                  Maximum  Maximum                  Lateral       Total        Flow
                                  Lateral    Total  Time of Max      Inflow      Inflow     Balance
                                   Inflow   Inflow   Occurrence      Volume      Volume       Error
  Node                 Type           LPS      LPS  days hr:min    10^6 ltr    10^6 ltr     Percent
  -------------------------------------------------------------------------------------------------
  WS02001211           JUNCTION      7.35   390.16     0  03:16       0.212        10.3       0.389
  WS02001212           JUNCTION      0.00   392.84     0  03:16           0        10.3       0.233
  WS02001213           JUNCTION      0.00   395.09     0  03:16           0        10.3       0.275
  WS02003069           JUNCTION      0.32  1273.21     0  03:10     0.00922        18.4       0.180
  WS02003072           JUNCTION      0.00  1273.03     0  03:11           0        18.4       0.219
  WS02003073           JUNCTION      1.82  1274.72     0  03:11      0.0524        18.4       0.253
  WS02003060           JUNCTION     16.53  1273.03     0  03:10       0.476        18.4       0.171
  WS02003066           JUNCTION      0.00   889.17     0  03:08           0        7.79       0.053
  WS02003059           JUNCTION      0.00   397.77     0  03:15           0        10.2       0.391
  WS02003067           JUNCTION      0.00   888.97     0  03:08           0         7.8       0.113
  WS02004401           JUNCTION      0.00   895.44     0  03:06           0        8.01       0.240
  WS02004402           JUNCTION      0.00   895.04     0  03:06           0        7.99       0.229
  WS02004403           JUNCTION      0.00   894.77     0  03:06           0        7.97       0.210
  WS02004404           JUNCTION      0.16   895.46     0  03:06     0.00467        7.96       0.160
  WS02004406           JUNCTION      0.00   895.44     0  03:06           0        7.93       0.392
  WS02004409           JUNCTION      0.00   894.52     0  03:06           0        7.89       0.184
  WS02004410           JUNCTION      0.00   890.20     0  03:07           0        7.88       0.211
  WS02004411           JUNCTION      0.00   888.26     0  03:07           0        7.86       0.219
  WS02004412           JUNCTION      0.00   888.15     0  03:08           0        7.84       0.240
  WS02004413           JUNCTION      0.00   888.84     0  03:08           0        7.82       0.361
  WS02004405           JUNCTION      0.04   895.57     0  03:06      0.0011        7.95       0.242
  WS02006109           JUNCTION      1.23   906.69     0  03:05      0.0354        8.03       0.216
  WS02006110           JUNCTION      0.00   906.46     0  03:05           0        8.01       0.231
  WS02006111           JUNCTION      0.00   899.79     0  03:05           0        7.99       0.040
  WS02006112           JUNCTION     30.67   895.43     0  03:06      0.0853        8.07       0.348
  WS02006113           JUNCTION      0.00   906.63     0  03:05           0           8       0.106
  WS02006115           JUNCTION      0.00   895.42     0  03:06           0        8.04       0.217
  WS02006116           JUNCTION      0.00   895.12     0  03:06           0        8.02       0.196
  WS02006230           JUNCTION     10.28   523.37     0  07:34       0.296        5.59       0.171
  WS02006231           JUNCTION      0.00   512.69     0  07:34           0         5.3       0.121
  WS02006232           JUNCTION      0.00   512.68     0  07:34           0        5.32       0.326
  WS02006234           JUNCTION      0.00   512.63     0  07:34           0        5.32       0.059
  WS02006235           JUNCTION      0.00   512.57     0  07:34           0        5.46       0.236
  WS02006238           JUNCTION      0.00   347.87     0  07:40           0        2.22       0.300
  WS02006240           JUNCTION      0.00   329.75     0  07:40           0        2.14       0.463
  WS02006242           JUNCTION      0.00   325.05     0  07:40           0        2.11       0.604
  WS02006243           JUNCTION      0.00   314.36     0  07:34           0        2.08       0.307
  WS02006245           JUNCTION      0.00   329.95     0  05:10           0        2.08       0.474
  WS02006247           JUNCTION      0.00   348.93     0  05:10           0        2.07       0.343
  WS02006248           JUNCTION      0.00   363.61     0  05:10           0        2.07       0.186
  WS02006249           JUNCTION      0.00   438.14     0  03:20           0        2.33       0.443
  WS02006239           JUNCTION      0.00   343.07     0  07:40           0        2.18       0.441
  WS02006251           JUNCTION      0.08   437.24     0  03:20     0.00222        2.37       0.349
  WS02006252           JUNCTION      0.00   400.00     0  03:20           0        1.86       0.032
  WS02006253           JUNCTION      3.75   195.09     0  03:03      0.0103       0.506       0.695
  WS02006256           JUNCTION      0.00   983.00     0  02:20           0        9.31       0.015
  WS02004138           JUNCTION      0.00   380.00     0  00:00           0        10.1       0.067
  WS02004139           JUNCTION      0.32   394.45     0  00:00     0.00924        10.1       0.447
  WS02004407           JUNCTION      0.00   895.92     0  03:06           0         7.9       0.080
  WS02006228           JUNCTION      0.00   905.68     0  03:05           0        8.01       0.153
  WS02006229           JUNCTION      0.00   915.44     0  03:04           0        8.02       0.171
  WS02006280           JUNCTION      0.00   680.09     0  03:02           0        2.44       0.017
  WS02006284           JUNCTION      0.10   679.00     0  03:02     0.00275        2.44       0.046
  WS02006287           JUNCTION      0.00   677.64     0  03:02           0        2.44       0.030
  WSF200               JUNCTION      0.00   889.22     0  03:08           0        7.78       0.049
  HS02004901           JUNCTION     37.63    37.63     0  03:01       0.103       0.103       1.736
  HS02004881           JUNCTION     14.26   140.54     0  03:01      0.0422       0.464       0.110
  HS02004876           JUNCTION     25.66   127.64     0  03:01      0.0814       0.422       0.129
  HS02004870           JUNCTION     26.26   103.60     0  03:01      0.0799       0.341       0.033
  HS02004862           JUNCTION     25.49    79.37     0  03:01      0.0889       0.261       0.067
  HS02004856           JUNCTION     19.64    55.41     0  03:01      0.0601       0.173       0.840
  HS02004852           JUNCTION      0.00    37.83     0  03:01           0       0.113       0.051
  HS02004848           JUNCTION     55.75    55.75     0  03:01       0.197       0.197       0.026
  HS02004842           JUNCTION      0.00    16.85     0  03:01           0       0.097      15.476
  HS02004837           JUNCTION     50.35    65.69     0  03:01       0.322       0.406       0.201
  HS02004830           JUNCTION      0.15    64.78     0  03:01     0.00432       0.396       0.312
  HS02004824           JUNCTION     65.57   128.44     0  03:01       0.251       0.646       0.084
  HS02004817           JUNCTION      0.60   124.45     0  03:01      0.0173       0.663       2.580
  HS02004807           JUNCTION     48.45   165.77     0  03:01       0.147       0.793       0.550
  HS02004802           JUNCTION      0.00   165.29     0  03:04           0        0.79       0.503
  HS02004799           JUNCTION     38.67   446.02     0  03:01       0.119        1.42       0.190
  HS02004792           JUNCTION    184.82   411.81     0  03:01       0.541         1.3       0.032
  HS02004788           JUNCTION     58.68   233.43     0  03:02        0.22        0.76       0.051
  HS02004785           JUNCTION      0.15   182.23     0  03:01     0.00432       0.541       0.092
  HS02004777           JUNCTION      0.03   185.03     0  03:01    0.000864       0.541       0.970
  HS02004770           JUNCTION    154.22   188.96     0  03:01       0.441       0.542       0.575
  HS02004480           JUNCTION      0.00   517.23     0  03:01           0        1.66       0.070
  HS02004479           JUNCTION      0.00    75.48     0  03:02           0       0.258       0.285
  HS02004478           JUNCTION      0.00   677.07     0  03:02           0        2.44       0.012
  YS02001745           JUNCTION    438.14   438.14     0  03:01        3.03        3.04       0.356
  YS02001748           JUNCTION      0.04   584.70     0  02:32      0.0013        3.03       0.713
  YS02001751           JUNCTION      0.01   442.58     0  03:01    0.000317           3       0.794
  YS02001754           JUNCTION      0.26   443.47     0  03:01     0.00749        2.98       0.838
  YS02001762           JUNCTION      0.00   315.09     0  02:42           0        1.82       1.189
  YS02001765           JUNCTION      0.00   315.33     0  02:42           0        1.82       1.362
  YS02001767           JUNCTION      0.54   315.54     0  02:42      0.0154        1.85       1.979
  YS02001770           JUNCTION    552.50   716.23     0  03:07        3.38        3.96       0.812
  YS02001774           JUNCTION      0.00   717.09     0  03:07           0        2.67       0.957
  YS02001779           JUNCTION      0.01   716.73     0  03:07    0.000144        2.64       0.586
  YS02001882           JUNCTION      0.00    14.39     0  04:17           0      0.0181      13.567
  YS02001884           JUNCTION      0.00    19.18     0  02:35           0      0.0544      12.448
  YS02001759           JUNCTION    536.49   619.52     0  02:43        3.12        4.34       0.530
  YS02001887           JUNCTION    679.97   680.26     0  03:01        3.58        3.61       0.236
  YS02001890           JUNCTION      0.00   680.42     0  03:01           0        3.56       0.262
  YS02001898           JUNCTION      0.00   517.94     0  03:08           0        3.46       0.084
  YS02001901           JUNCTION      0.00   518.22     0  03:10           0        3.46       0.201
  YS02001904           JUNCTION      0.00   517.88     0  03:11           0        3.45       0.179
  YS02001907           JUNCTION      0.00  1104.19     0  03:02           0        7.82       0.310
  YS02001910           JUNCTION      0.00   593.77     0  02:50           0        4.38       0.272
  YS02001915           JUNCTION    389.26   593.14     0  02:50        2.53        4.41       0.133
  YS02001918           JUNCTION      0.00   321.44     0  02:50           0         1.9       0.104
  YS02001619           JUNCTION    380.66   380.66     0  03:01        2.52        2.52       0.479
  YS02001629           JUNCTION      0.00   197.24     0  02:39           0        1.61       1.833
  YS02001641           JUNCTION      0.00   415.50     0  02:39           0        4.49       0.466
  YS02001644           JUNCTION    416.76  1562.47     0  03:01        2.92        12.3       0.211
  YS02001652           JUNCTION      0.00   498.05     0  03:01           0        2.63       0.917
  YS02001655           JUNCTION      0.15   498.21     0  03:01     0.00443        2.66       0.901
  YS02001920           JUNCTION      2.87   320.94     0  02:50      0.0827        1.89       0.161
  YS02001923           JUNCTION      0.04   310.45     0  02:50     0.00109         1.8       0.038
  YS02001926           JUNCTION      0.05   292.59     0  02:48      0.0015        1.78       0.179
  YS02001929           JUNCTION    189.18   189.18     0  02:47        1.77        1.77       0.033
  YS02001658           JUNCTION      0.00   617.08     0  02:29           0        2.69       0.780
  YS02001661           JUNCTION      0.00   660.34     0  02:42           0        2.85       0.030
  YS02001664           JUNCTION    492.63   492.63     0  03:01        2.68        2.84       0.197
  YS02001622           JUNCTION      0.00   381.14     0  03:01           0        2.51       1.291
  YS02001633           JUNCTION    423.29   423.29     0  03:01        3.01        4.56       0.711
  YS02001649           JUNCTION      0.00   873.98     0  02:39           0        6.95       0.536
  YS02001757           JUNCTION      0.00  1678.33     0  02:41           0        8.89       1.043
  YS02001895           JUNCTION      0.00   517.93     0  03:10           0        3.47       0.143
  YS02001625           JUNCTION      0.00   408.56     0  03:01           0        2.49       1.585
  YS02163301           JUNCTION      0.00   206.94     0  02:32           0        1.59       1.557
  YS02163601           JUNCTION      0.11   414.61     0  02:39     0.00317        4.51       0.665
  YS02164001           JUNCTION      0.00   414.44     0  02:39           0        4.49       0.456
  YS02001647           JUNCTION      0.00   793.47     0  03:09           0        6.24       0.456
  YSB1154              JUNCTION     44.76    44.76     0  03:01       0.144       0.144       1.014
  YSB6556              JUNCTION      0.00    43.28     0  03:01           0       0.145       0.867
  YSB1174              JUNCTION     38.10    38.10     0  03:01       0.106       0.107       1.219
  YSB1171              JUNCTION      0.00    76.89     0  03:01           0       0.257       2.522
  YS02006553           JUNCTION      0.00   709.10     0  03:46           0        6.76       0.231
  YS02006561           JUNCTION      0.00  1017.74     0  02:46           0          10       0.009
  YS02006556           JUNCTION      0.00   709.24     0  03:46           0        6.76       0.169
  YS02006558           JUNCTION    587.14  1012.54     0  02:46        3.29          10       0.051
  YS02001783           JUNCTION      0.00  1002.97     0  02:45           0        9.99       0.024
  YS02001784           JUNCTION      1.06  1004.22     0  02:45      0.0305          10       0.036
  YS02001786           JUNCTION      0.06  1003.31     0  02:46     0.00162          10       0.030
  YS02001788           JUNCTION      0.07   988.58     0  02:45     0.00204          10       0.023
  YS02001790           JUNCTION      0.15   982.79     0  03:33     0.00446          10       0.010
  YS02001791           JUNCTION      0.00  1024.12     0  02:45           0          10       0.007
  YS02001793           JUNCTION      0.00   982.95     0  03:33           0          10      -0.012
  WSC                  OUTFALL       0.00  1274.97     0  03:12           0        18.3       0.000
  JK-storage           STORAGE       0.00   983.23     0  03:33           0        10.2      -8.989
  CC-storage           STORAGE       0.00  1679.27     0  02:41           0        5.76       1.112
  XR-storage           STORAGE    1024.87  1024.87     0  03:01        12.9        13.5      -0.005
  
  
  **********************
  Node Surcharge Summary
  **********************
  
  Surcharging occurs when water rises above the top of the highest conduit.
  ---------------------------------------------------------------------
                                               Max. Height   Min. Depth
                                   Hours       Above Crown    Below Rim
  Node                 Type      Surcharged         Meters       Meters
  ---------------------------------------------------------------------
  WS02004401           JUNCTION        0.35          0.212        1.448
  WS02004402           JUNCTION        0.41          0.204        1.536
  WS02004403           JUNCTION        0.43          0.183        1.847
  WS02004404           JUNCTION        1.15          0.230        2.550
  WS02004406           JUNCTION        0.91          0.157        2.293
  WS02004413           JUNCTION        0.05          0.005        2.195
  WS02004405           JUNCTION        1.01          0.206        2.594
  WS02006109           JUNCTION        2.27          0.723        1.097
  WS02006110           JUNCTION        1.49          0.488        1.362
  WS02006111           JUNCTION        0.01          0.043        1.827
  WS02006112           JUNCTION        1.63          0.522        1.158
  WS02006113           JUNCTION        0.03          0.125        1.805
  WS02006115           JUNCTION        0.22          0.175        2.075
  WS02006116           JUNCTION        0.24          0.177        2.113
  WS02006230           JUNCTION        1.20          0.668        0.902
  WS02006231           JUNCTION        1.39          0.704        0.826
  WS02006232           JUNCTION        2.26          0.831        0.649
  WS02006234           JUNCTION        1.53          0.734        0.506
  WS02006235           JUNCTION        1.69          0.771        0.519
  WS02006238           JUNCTION        1.82          0.780        0.650
  WS02006240           JUNCTION        1.20          0.656        0.734
  WS02006242           JUNCTION        1.25          0.672        0.148
  WS02006243           JUNCTION        1.02          0.543        0.227
  WS02006245           JUNCTION        0.97          0.493        0.357
  WS02006247           JUNCTION        0.97          0.505        0.255
  WS02006248           JUNCTION        0.86          0.380        0.000
  WS02006249           JUNCTION        0.89          0.390        0.000
  WS02006239           JUNCTION        1.37          0.705        0.585
  WS02006251           JUNCTION        0.64          0.585        0.595
  WS02006252           JUNCTION        0.99          0.685        0.415
  WS02006253           JUNCTION        0.65          1.022        1.458
  WS02006256           JUNCTION        6.54          2.050        0.000
  WS02006228           JUNCTION        2.24          0.858        1.342
  YS02001748           JUNCTION        5.39          1.163        0.027
  YS02001751           JUNCTION        5.55          1.147        0.053
  YS02001754           JUNCTION        5.74          1.029        0.121
  YS02001762           JUNCTION        5.92          1.110        0.040
  YS02001765           JUNCTION        5.88          1.060        0.040
  YS02001767           JUNCTION        5.86          1.002        0.028
  YS02001770           JUNCTION        5.84          0.920        0.000
  YS02001774           JUNCTION        5.90          1.000        0.050
  YS02001779           JUNCTION        5.72          0.680        0.000
  YS02001882           JUNCTION        1.06          0.637        0.193
  YS02001884           JUNCTION        1.09          0.676        0.194
  YS02001759           JUNCTION        5.94          1.131        0.079
  YS02001887           JUNCTION        1.17          0.765        0.185
  YS02001890           JUNCTION        1.19          0.760        0.000
  YS02001898           JUNCTION        1.02          0.535        0.205
  YS02001901           JUNCTION        1.13          0.679        0.191
  YS02001904           JUNCTION        1.10          0.639        0.211
  YS02001907           JUNCTION        1.90          0.950        0.000
  YS02001910           JUNCTION        1.24          0.815        0.285
  YS02001915           JUNCTION        1.04          0.659        0.341
  YS02001918           JUNCTION        0.88          0.403        0.407
  YS02001619           JUNCTION        5.54          0.512        0.098
  YS02001629           JUNCTION        5.55          0.466        0.004
  YS02001641           JUNCTION        5.89          0.934        0.166
  YS02001644           JUNCTION        5.90          0.920        0.000
  YS02001652           JUNCTION        5.78          1.062        0.068
  YS02001655           JUNCTION        5.56          1.200        0.000
  YS02001920           JUNCTION        0.90          0.491        0.649
  YS02001923           JUNCTION        0.01          0.072        0.748
  YS02001926           JUNCTION        0.01          0.440        0.460
  YS02001658           JUNCTION        5.42          1.086        0.214
  YS02001661           JUNCTION        0.10          0.924        0.466
  YS02001622           JUNCTION        5.57          0.517        0.103
  YS02001633           JUNCTION        5.87          0.928        0.132
  YS02001649           JUNCTION        5.92          1.050        0.000
  YS02001757           JUNCTION        6.03          1.204        0.006
  YS02001895           JUNCTION        1.03          0.566        0.184
  YS02001625           JUNCTION        5.81          0.780        0.000
  YS02163301           JUNCTION        5.85          0.882        0.148
  YS02163601           JUNCTION        5.92          0.992        0.088
  YS02164001           JUNCTION        5.88          0.920        0.180
  YS02001647           JUNCTION        5.79          0.801        0.099
  YS02006553           JUNCTION        2.00          0.971        0.219
  YS02006561           JUNCTION        0.92          0.451        0.699
  YS02006556           JUNCTION        1.47          0.897        0.453
  YS02006558           JUNCTION        1.43          0.878        0.522
  YS02001783           JUNCTION        1.18          0.800        0.800
  YS02001784           JUNCTION        1.14          0.773        0.717
  YS02001786           JUNCTION        1.02          0.923        0.507
  YS02001788           JUNCTION        0.97          1.213        0.267
  YS02001790           JUNCTION        1.96          1.040        0.117
  YS02001791           JUNCTION        2.12          0.777        1.143
  YS02001793           JUNCTION        2.46          0.957        1.643
  
  
  *********************
  Node Flooding Summary
  *********************
  
  Flooding refers to all water that overflows a node, whether it ponds or not.
  --------------------------------------------------------------------------
                                                             Total   Maximum
                                 Maximum   Time of Max       Flood    Ponded
                        Hours       Rate    Occurrence      Volume     Depth
  Node                 Flooded       LPS   days hr:min    10^6 ltr    Meters
  --------------------------------------------------------------------------
  WS02006248              0.01     24.85      0  03:03       0.000     0.000
  WS02006249              0.64    185.25      0  03:04       0.248     0.000
  WS02006256              3.74    810.15      0  03:10       5.971     0.000
  YS02001770              0.01      1.73      0  04:04       0.000     0.000
  YS02001779              2.99    716.53      0  03:07       2.627     0.000
  YS02001890              0.34    163.81      0  03:01       0.085     0.000
  YS02001907              0.76    710.26      0  03:01       1.049     0.000
  YS02001644              4.85   1562.23      0  03:01      10.924     0.000
  YS02001655              0.01    137.61      0  02:25       0.000     0.000
  YS02001649              0.02     29.27      0  04:26       0.001     0.000
  YS02001625              1.42    408.47      0  03:01       0.856     0.000
  JK-storage              1.11    971.51      0  02:59       1.752     0.000
  XR-storage              3.46    644.79      0  03:01       2.615     0.000
  
  
  **********************
  Storage Volume Summary
  **********************
  
  --------------------------------------------------------------------------------------------------
                         Average     Avg  Evap Exfil       Maximum     Max    Time of Max    Maximum
                          Volume    Pcnt  Pcnt  Pcnt        Volume    Pcnt     Occurrence    Outflow
  Storage Unit           1000 m3    Full  Loss  Loss       1000 m3    Full    days hr:min        LPS
  --------------------------------------------------------------------------------------------------
  JK-storage               0.124      43     0     0         0.291     100       0  02:46     983.00
  CC-storage               3.089      20     0     0         4.013      26       0  03:09     400.00
  XR-storage               0.753      81     0     0         0.926     100       0  02:59     380.00
  
  
  ***********************
  Outfall Loading Summary
  ***********************
  
  ---------------------------------------------------------------------------------------------------------------------------------
                         Flow       Avg       Max       Total         Total         Total         Total         Total         Total
                         Freq      Flow      Flow      Volume           COD            SS            TN            TP         NH4-N
  Outfall Node           Pcnt       LPS       LPS    10^6 ltr            kg            kg            kg            kg            kg
  ---------------------------------------------------------------------------------------------------------------------------------
  WSC                   99.99    721.52   1274.97      18.349      2268.074      3906.760       149.276        17.664        90.562
  ---------------------------------------------------------------------------------------------------------------------------------
  System                99.99    721.52   1274.97      18.349      2268.074      3906.760       149.276        17.664        90.562
  
  
  ********************
  Link Flow Summary
  ********************
  
  -----------------------------------------------------------------------------
                                 Maximum  Time of Max   Maximum    Max/    Max/
                                  |Flow|   Occurrence   |Veloc|    Full    Full
  Link                 Type          LPS  days hr:min     m/sec    Flow   Depth
  -----------------------------------------------------------------------------
  WS02003066WSF200     CONDUIT    889.22     0  03:08      2.97    0.15    0.31
  WS02006287WS02006284 CONDUIT    678.90     0  03:02      2.38    0.31    0.39
  WS02006284WS02006280 CONDUIT    680.09     0  03:02      2.62    0.28    0.37
  WS02006280WS02006229 CONDUIT    680.13     0  03:02      4.23    0.15    0.43
  WS02006229WS02006228 CONDUIT    905.68     0  03:05      1.80    3.00    1.00
  WS02006256WS02006235 CONDUIT    264.10     0  00:32      3.74    2.80    1.00
  WS02006253WS02006251 CONDUIT    155.44     0  03:04      0.69    0.47    1.00
  WS02006252WS02006251 CONDUIT    400.94     0  03:38      3.19    1.47    1.00
  WS02006251WS02006249 CONDUIT    438.14     0  03:20      1.14    1.26    1.00
  WS02006249WS02006248 CONDUIT    363.61     0  05:10      1.14    1.99    1.00
  WS02006248WS02006247 CONDUIT    348.93     0  05:10      1.08    0.76    1.00
  WS02006247WS02006245 CONDUIT    329.95     0  05:10      1.01    2.62    1.00
  WS02006245WS02006243 CONDUIT    314.36     0  07:34      0.98    0.93    1.00
  WS02006243WS02006242 CONDUIT    325.05     0  07:40      0.86    0.69    1.00
  WS02006242WS02006240 CONDUIT    329.75     0  07:40      0.87    1.31    1.00
  WS02006240WS02006239 CONDUIT    343.07     0  07:40      0.92    1.08    1.00
  WS02006239WS02006238 CONDUIT    347.87     0  07:40      0.90    1.11    1.00
  WS02006238WS02006235 CONDUIT    350.17     0  07:40      1.05    0.78    1.00
  WS02006235WS02006234 CONDUIT    512.63     0  07:34      1.33    5.41    1.00
  WS02006234WS02006232 CONDUIT    512.68     0  07:34      1.33    1.04    1.00
  WS02006232WS02006231 CONDUIT    512.69     0  07:34      1.33    1.07    1.00
  WS02006231WS02006230 CONDUIT    513.09     0  07:34      1.40    7.78    1.00
  WS02006230WS02006229 CONDUIT    523.83     0  07:34      1.36   11.66    1.00
  WS02006228WS02006109 CONDUIT    905.46     0  03:05      1.80    3.96    1.00
  WS02006116WS02004401 CONDUIT    895.44     0  03:06      1.14    1.23    1.00
  WS02006115WS02006116 CONDUIT    895.12     0  03:06      1.14    1.15    1.00
  WS02006113WS02006111 CONDUIT    899.79     0  03:05      2.61    1.08    1.00
  WS02006112WS02006115 CONDUIT    895.42     0  03:06      1.14    0.53    1.00
  WS02006111WS02006112 CONDUIT    880.78     0  03:06      1.75    0.42    1.00
  WS02006110WS02006113 CONDUIT    906.63     0  03:05      1.83    0.82    1.00
  WS02006109WS02006110 CONDUIT    906.46     0  03:05      1.80    1.74    1.00
  WS02004411WS02004412 CONDUIT    888.15     0  03:08      1.21    1.26    0.89
  WS02004401WS02004402 CONDUIT    895.04     0  03:06      1.14    1.07    1.00
  WS02004413WS02003067 CONDUIT    888.97     0  03:08      1.48    0.38    0.71
  WS02004412WS02004413 CONDUIT    888.84     0  03:08      1.16    0.60    0.94
  WS02004410WS02004411 CONDUIT    888.26     0  03:07      1.19    1.21    0.90
  WS02004409WS02004410 CONDUIT    890.20     0  03:07      1.19    1.15    0.91
  WS02004407WS02004409 CONDUIT    894.52     0  03:06      1.67    0.32    0.65
  WS02004406WS02004407 CONDUIT    895.92     0  03:06      1.54    0.40    0.69
  WS02004405WS02004406 CONDUIT    895.44     0  03:06      1.14    1.77    1.00
  WS02004404WS02004405 CONDUIT    895.54     0  03:06      1.14    8.77    1.00
  WS02004403WS02004404 CONDUIT    895.30     0  03:06      1.14    0.65    1.00
  WS02004402WS02004403 CONDUIT    894.77     0  03:06      1.14    1.29    1.00
  WS02004139WS02001211 CONDUIT    382.81     0  03:16      0.90    0.48    0.63
  WS02004138WS02004139 CONDUIT    394.13     0  00:00      3.62    0.08    0.46
  WS02003067WS02003066 CONDUIT    889.17     0  03:08      1.60    0.28    0.49
  WS02001213WS02003059 CONDUIT    397.77     0  03:15      0.89    0.66    0.86
  WS02001212WS02001213 CONDUIT    395.09     0  03:16      1.32    0.61    0.54
  WS02001211WS02001212 CONDUIT    392.84     0  03:16      0.78    0.30    0.70
  WS02003072WS02003073 CONDUIT   1272.90     0  03:11      1.93    2.75    0.57
  WS02003069WS02003072 CONDUIT   1273.03     0  03:11      1.79    0.61    0.60
  WS02003060WS02003069 CONDUIT   1272.89     0  03:10      2.01    0.50    0.55
  WS02003059WS02003060 CONDUIT    400.89     0  03:16      0.95    0.26    0.75
  HS02004901HS02004770 CONDUIT     37.22     0  03:01      0.10    0.14    0.53
  HS02004876HS02004881 CONDUIT    127.63     0  03:01      1.21    1.36    0.15
  HS02004870HS02004876 CONDUIT    103.09     0  03:01      0.82    0.07    0.18
  HS02004842HS02004848 CONDUIT     16.85     0  03:01      0.07    0.01    0.33
  HS02004837HS02004842 CONDUIT     17.91     0  03:03      0.42    0.01    0.35
  HS02004830HS02004837 CONDUIT     64.63     0  03:01      0.67    0.06    0.14
  HS02004824HS02004830 CONDUIT     64.11     0  03:02      0.62    0.08    0.16
  HS02004817HS02004824 CONDUIT    123.85     0  03:01      0.31    0.06    0.58
  HS02004770HS02004777 CONDUIT    185.00     0  03:01      0.49    0.34    0.54
  HS02004799HS02004480 CONDUIT    444.35     0  03:01      1.07    0.56    0.60
  HS02004792HS02004799 CONDUIT    408.41     0  03:01      1.20    0.25    0.49
  HS02004788HS02004792 CONDUIT    232.93     0  03:02      1.28    0.15    0.26
  HS02004785HS02004788 CONDUIT    181.79     0  03:02      0.91    1.37    0.29
  HS02004777HS02004785 CONDUIT    182.08     0  03:01      0.57    0.22    0.45
  HS02004480HS02004478 CONDUIT    517.35     0  03:01      1.55    2.18    0.48
  HS02004479HS02004480 CONDUIT     77.35     0  03:02      0.30    0.07    0.57
  HS02004862HS02004870 CONDUIT     79.02     0  03:01      0.80    0.09    0.14
  HS02004848HS02004852 CONDUIT     37.83     0  03:01      0.53    0.04    0.10
  HS02004856HS02004862 CONDUIT     54.76     0  03:01      0.59    0.05    0.13
  HS02004852HS02004856 CONDUIT     37.74     0  03:02      0.34    0.04    0.16
  HS02004802HS02004478 CONDUIT    170.13     0  03:04      0.54    0.15    0.48
  HS02004478WS02006287 CONDUIT    677.64     0  03:02      2.11    0.19    0.36
  HS02004817HS02004807 CONDUIT    128.09     0  03:04      0.25    0.08    0.75
  HS02004807HS02004802 CONDUIT    165.29     0  03:04      0.46    0.32    0.53
  YS02001759YS02001757 CONDUIT    618.87     0  02:43      0.79    0.44    1.00
  YS02001762YS02001759 CONDUIT    313.66     0  02:42      0.40    0.36    1.00
  YS02001765YS02001762 CONDUIT    315.09     0  02:42      0.40    0.30    1.00
  YS02001770YS02001767 CONDUIT    315.01     0  02:42      0.40    1.25    1.00
  YS02001774YS02001770 CONDUIT    717.09     0  03:07      0.91    0.46    1.00
  YS02001779YS02001774 CONDUIT    716.73     0  03:07      0.91    0.36    1.00
  YS02001649YS02001757 CONDUIT    874.04     0  02:39      1.11    0.53    1.00
  YS02001767YS02001765 CONDUIT    315.33     0  02:42      0.40    0.40    1.00
  YS02006561YS02001783 CONDUIT   1002.97     0  02:45      2.24    0.52    1.00
  YS02001783YS02001784 CONDUIT   1003.16     0  02:45      2.00    1.38    1.00
  YS02001784YS02001785 CONDUIT   1003.25     0  02:46      2.03    2.33    1.00
  YS02001788YS02001790 CONDUIT    982.64     0  03:33      2.49    0.72    1.00
  YS02001790YS02001791 CONDUIT   1024.12     0  02:45      3.15    1.11    1.00
  YS02001791YS02001793 CONDUIT    982.95     0  03:33      6.12    0.42    1.00
  YS02001910YS02001907 CONDUIT    593.55     0  02:50      0.76    0.33    1.00
  YS02001786YS02001788 CONDUIT    988.51     0  02:45      2.33    1.90    1.00
  YS02001915YS02001910 CONDUIT    593.77     0  02:50      0.76    0.29    1.00
  YS02001918YS02001915 CONDUIT    323.56     0  02:50      0.44    0.18    1.00
  YS02001923YS02001920 CONDUIT    318.07     0  02:50      0.75    0.14    1.00
  YS02001926YS02001923 CONDUIT    310.41     0  02:50      0.86    0.44    1.00
  YS02001929YS02001926 CONDUIT    258.75     0  02:49      0.92    0.12    0.92
  YS02001920YS02001918 CONDUIT    321.44     0  02:50      0.72    0.31    1.00
  YS02001629YS02163301 CONDUIT    206.94     0  02:32      0.26    0.25    1.00
  YS02001619YS02001622 CONDUIT    381.14     0  03:01      0.59    0.56    1.00
  YS02001622YS02001625 CONDUIT    380.96     0  03:01      0.49    0.20    1.00
  YS02001625YS02001629 CONDUIT    197.24     0  02:39      0.25    0.09    1.00
  YS02163301YS02001633 CONDUIT    208.37     0  02:32      0.27    0.20    1.00
  YS02163601YS02164001 CONDUIT    414.44     0  02:39      0.53    0.37    1.00
  YS02164001YS02001641 CONDUIT    415.50     0  02:39      0.53    0.57    1.00
  YS02001641YS02001644 CONDUIT    414.31     0  02:39      0.53    1.34    1.00
  YS02001647YS02001649 CONDUIT    793.47     0  03:09      1.01    0.42    1.00
  YS02006553YS02006556 CONDUIT    709.24     0  03:46      0.90    0.61    1.00
  YS02006556YS02006558 CONDUIT    709.50     0  03:46      0.90    0.56    1.00
  YSB6556YSB1171       CONDUIT     42.81     0  03:02      0.13    0.04    0.82
  YS02001907YS02006553 CONDUIT    709.10     0  03:46      0.79    0.83    1.00
  YS02006558YS02006561 CONDUIT   1017.74     0  02:46      3.65    2.25    1.00
  YS02001633YS02163601 CONDUIT    414.50     0  02:39      0.53    0.44    1.00
  YS02001644YS02001647 CONDUIT    793.42     0  03:09      1.01    0.47    1.00
  YS02001745YS02001748 CONDUIT    584.66     0  02:32      1.46    0.23    0.98
  YS02001748YS02001751 CONDUIT    442.57     0  03:01      1.03    0.22    1.00
  YS02001751YS02001754 CONDUIT    443.21     0  03:01      0.88    0.21    1.00
  YS02001754YS02001757 CONDUIT    443.11     0  03:01      0.56    0.18    1.00
  YS02001882YS02001884 CONDUIT     14.39     0  04:17      0.12    0.02    1.00
  YS02001884YS02001887 CONDUIT     19.18     0  02:35      0.08    0.03    1.00
  YS02001890YS02001895 CONDUIT    517.93     0  03:10      0.66    0.24    1.00
  YS02001895YS02001898 CONDUIT    517.94     0  03:08      0.66    0.90    1.00
  YS02001898YS02001901 CONDUIT    518.22     0  03:10      0.66    0.33    1.00
  YS02001901YS02001904 CONDUIT    517.88     0  03:11      0.66    0.80    1.00
  YS02001904YS02001907 CONDUIT    517.94     0  03:10      0.66    0.18    1.00
  YS02001887YS02001890 CONDUIT    680.42     0  03:01      0.87    1.16    1.00
  YS02001652YS02001649 CONDUIT    497.98     0  03:01      0.63    0.25    1.00
  YS02001655YS02001652 CONDUIT    498.05     0  03:01      0.94    0.24    1.00
  YS02001658YS02001655 CONDUIT    498.06     0  03:01      1.18    0.21    1.00
  YS02001661YS02001658 CONDUIT    617.08     0  02:29      1.52    0.24    1.00
  YS02001664YS02001661 CONDUIT    660.34     0  02:42      1.43    0.21    0.77
  YSB1154YSB6556       CONDUIT     43.28     0  03:01      0.18    0.08    0.73
  YSB1174YSB1171       CONDUIT     36.64     0  03:01      0.11    0.06    0.85
  YSB1171HS02004479    CONDUIT     75.48     0  03:02      0.54    0.05    0.68
  HS02004881HS02006253 CONDUIT    149.29     0  03:04      2.66    0.03    0.54
  YS02001793JiankangQianchi CONDUIT    983.23     0  03:33     16.59    0.08    1.00
  YS02001757CaochengTiaoxuchi CONDUIT   1679.27     0  02:41      2.17    0.74    1.00
  WSF200WS02003060     CONDUIT    889.42     0  03:09      1.91    0.20    0.43
  1                    CONDUIT   1274.97     0  03:12      3.55    0.44    0.47
  CC-Pump-1            PUMP       200.00     0  03:10              1.00
  CC-Pump-2            PUMP       200.00     0  03:20              1.00
  JK-Pump-1            PUMP       300.00     0  02:10              1.00
  JK-Pump-2            PUMP       683.00     0  02:20              1.00
  XR-Pump-1            PUMP        95.00     0  00:00              1.00
  XR-Pump-2            PUMP        95.00     0  00:00              1.00
  XR-Pump-3            PUMP        95.00     0  00:00              1.00
  XR-Pump-4            PUMP        95.00     0  00:00              1.00
  
  
  ***************************
  Flow Classification Summary
  ***************************
  
  -------------------------------------------------------------------------------------
                      Adjusted    ---------- Fraction of Time in Flow Class ---------- 
                       /Actual         Up    Down  Sub   Sup   Up    Down  Norm  Inlet 
  Conduit               Length    Dry  Dry   Dry   Crit  Crit  Crit  Crit  Ltd   Ctrl  
  -------------------------------------------------------------------------------------
  WS02003066WSF200        1.00   0.01  0.06  0.00  0.00  0.93  0.00  0.00  0.56  0.00
  WS02006287WS02006284    1.00   0.04  0.02  0.00  0.57  0.38  0.00  0.00  0.66  0.00
  WS02006284WS02006280    1.00   0.05  0.00  0.00  0.00  0.00  0.00  0.95  0.00  0.00
  WS02006280WS02006229    1.00   0.05  0.00  0.00  0.00  0.03  0.00  0.93  0.01  0.00
  WS02006229WS02006228    1.00   0.00  0.00  0.00  1.00  0.00  0.00  0.00  0.00  0.00
  WS02006256WS02006235    1.00   0.02  0.00  0.00  0.97  0.01  0.00  0.00  0.00  0.00
  WS02006253WS02006251    1.00   0.02  0.03  0.00  0.95  0.00  0.01  0.00  0.00  0.00
  WS02006252WS02006251    1.00   0.26  0.06  0.00  0.11  0.00  0.57  0.00  0.00  0.00
  WS02006251WS02006249    1.00   0.00  0.00  0.00  1.00  0.00  0.00  0.00  0.46  0.00
  WS02006249WS02006248    1.00   0.00  0.01  0.00  0.79  0.00  0.21  0.00  0.00  0.00
  WS02006248WS02006247    1.00   0.01  0.00  0.00  0.97  0.00  0.00  0.02  0.32  0.00
  WS02006247WS02006245    1.00   0.01  0.00  0.00  0.96  0.00  0.00  0.03  0.00  0.00
  WS02006245WS02006243    1.00   0.01  0.00  0.00  0.92  0.00  0.00  0.07  0.01  0.00
  WS02006243WS02006242    1.00   0.01  0.00  0.00  0.98  0.00  0.00  0.01  0.34  0.00
  WS02006242WS02006240    1.00   0.02  0.01  0.00  0.98  0.00  0.00  0.00  0.00  0.00
  WS02006240WS02006239    1.00   0.02  0.00  0.00  0.89  0.00  0.00  0.08  0.02  0.00
  WS02006239WS02006238    1.00   0.02  0.00  0.00  0.98  0.00  0.00  0.00  0.13  0.00
  WS02006238WS02006235    1.00   0.02  0.00  0.00  0.98  0.00  0.00  0.00  0.00  0.00
  WS02006235WS02006234    1.00   0.02  0.00  0.00  0.93  0.00  0.05  0.00  0.00  0.00
  WS02006234WS02006232    1.00   0.02  0.00  0.00  0.98  0.00  0.00  0.00  0.04  0.00
  WS02006232WS02006231    1.00   0.02  0.00  0.00  0.97  0.00  0.01  0.00  0.00  0.00
  WS02006231WS02006230    1.00   0.02  0.00  0.00  0.57  0.00  0.41  0.00  0.00  0.00
  WS02006230WS02006229    1.00   0.00  0.00  0.00  0.99  0.00  0.00  0.01  0.00  0.00
  WS02006228WS02006109    1.00   0.00  0.00  0.00  1.00  0.00  0.00  0.00  0.00  0.00
  WS02006116WS02004401    1.00   0.03  0.00  0.00  0.97  0.00  0.00  0.00  0.00  0.00
  WS02006115WS02006116    1.00   0.03  0.00  0.00  0.97  0.00  0.00  0.00  0.00  0.00
  WS02006113WS02006111    1.00   0.02  0.00  0.00  0.04  0.94  0.00  0.00  0.18  0.00
  WS02006112WS02006115    1.00   0.02  0.01  0.00  0.97  0.00  0.00  0.00  0.00  0.00
  WS02006111WS02006112    1.00   0.02  0.00  0.00  0.97  0.00  0.00  0.00  0.80  0.00
  WS02006110WS02006113    1.00   0.00  0.02  0.00  0.98  0.00  0.00  0.00  0.00  0.00
  WS02006109WS02006110    1.00   0.00  0.00  0.00  0.99  0.00  0.00  0.00  0.00  0.00
  WS02004411WS02004412    1.00   0.04  0.00  0.00  0.96  0.00  0.00  0.00  0.00  0.00
  WS02004401WS02004402    1.00   0.03  0.00  0.00  0.97  0.00  0.00  0.00  0.00  0.00
  WS02004413WS02003067    1.00   0.04  0.02  0.00  0.00  0.00  0.94  0.00  0.00  0.00
  WS02004412WS02004413    1.00   0.04  0.00  0.00  0.96  0.00  0.00  0.00  0.01  0.00
  WS02004410WS02004411    1.00   0.04  0.00  0.00  0.96  0.00  0.00  0.00  0.01  0.00
  WS02004409WS02004410    1.00   0.04  0.00  0.00  0.96  0.00  0.00  0.00  0.03  0.00
  WS02004407WS02004409    1.00   0.04  0.00  0.00  0.96  0.00  0.00  0.00  0.88  0.00
  WS02004406WS02004407    1.00   0.00  0.04  0.00  0.96  0.00  0.00  0.00  0.00  0.00
  WS02004405WS02004406    1.00   0.00  0.00  0.00  1.00  0.00  0.00  0.00  0.04  0.00
  WS02004404WS02004405    1.00   0.00  0.00  0.00  1.00  0.00  0.00  0.00  0.00  0.00
  WS02004403WS02004404    1.00   0.00  0.03  0.00  0.97  0.00  0.00  0.00  0.00  0.00
  WS02004402WS02004403    1.00   0.03  0.00  0.00  0.97  0.00  0.00  0.00  0.00  0.00
  WS02004139WS02001211    1.00   0.00  0.00  0.00  1.00  0.00  0.00  0.00  0.00  0.00
  WS02004138WS02004139    1.00   0.00  0.00  0.00  1.00  0.00  0.00  0.00  1.00  0.00
  WS02003067WS02003066    1.00   0.06  0.01  0.00  0.93  0.00  0.00  0.00  0.00  0.00
  WS02001213WS02003059    1.00   0.00  0.00  0.00  1.00  0.00  0.00  0.00  0.00  0.00
  WS02001212WS02001213    1.00   0.00  0.00  0.00  0.89  0.00  0.11  0.00  0.00  0.00
  WS02001211WS02001212    1.00   0.00  0.00  0.00  1.00  0.00  0.00  0.00  0.00  0.00
  WS02003072WS02003073    1.00   0.00  0.00  0.00  0.00  0.00  0.00  1.00  0.00  0.00
  WS02003069WS02003072    1.00   0.00  0.00  0.00  1.00  0.00  0.00  0.00  0.13  0.00
  WS02003060WS02003069    1.00   0.00  0.00  0.00  0.99  0.01  0.00  0.00  0.08  0.00
  WS02003059WS02003060    1.00   0.00  0.00  0.00  1.00  0.00  0.00  0.00  0.00  0.00
  HS02004901HS02004770    1.00   0.04  0.00  0.00  0.95  0.00  0.00  0.00  0.00  0.00
  HS02004876HS02004881    1.00   0.01  0.00  0.00  0.88  0.11  0.00  0.00  0.00  0.00
  HS02004870HS02004876    1.00   0.00  0.00  0.00  1.00  0.00  0.00  0.00  0.95  0.00
  HS02004842HS02004848    1.00   0.00  0.05  0.00  0.95  0.00  0.00  0.00  0.55  0.00
  HS02004837HS02004842    1.00   0.00  0.00  0.00  1.00  0.00  0.00  0.00  0.11  0.00
  HS02004830HS02004837    1.00   0.00  0.00  0.00  1.00  0.00  0.00  0.00  0.99  0.00
  HS02004824HS02004830    1.00   0.00  0.00  0.00  1.00  0.00  0.00  0.00  0.01  0.00
  HS02004817HS02004824    1.00   0.00  0.00  0.00  1.00  0.00  0.00  0.00  0.97  0.00
  HS02004770HS02004777    1.00   0.00  0.05  0.00  0.95  0.00  0.00  0.00  0.03  0.00
  HS02004799HS02004480    1.00   0.00  0.01  0.00  0.95  0.00  0.04  0.00  0.00  0.00
  HS02004792HS02004799    1.00   0.00  0.00  0.00  1.00  0.00  0.00  0.00  0.98  0.00
  HS02004788HS02004792    1.00   0.00  0.00  0.00  1.00  0.00  0.00  0.00  0.98  0.00
  HS02004785HS02004788    1.00   0.00  0.00  0.00  1.00  0.00  0.00  0.00  0.00  0.00
  HS02004777HS02004785    1.00   0.00  0.00  0.00  1.00  0.00  0.00  0.00  0.12  0.00
  HS02004480HS02004478    1.00   0.05  0.00  0.00  0.64  0.00  0.00  0.32  0.00  0.00
  HS02004479HS02004480    1.00   0.01  0.00  0.00  0.99  0.00  0.00  0.00  0.11  0.00
  HS02004862HS02004870    1.00   0.00  0.00  0.00  1.00  0.00  0.00  0.00  0.03  0.00
  HS02004848HS02004852    1.00   0.05  0.00  0.00  0.95  0.00  0.00  0.00  0.65  0.00
  HS02004856HS02004862    1.00   0.00  0.06  0.00  0.94  0.00  0.00  0.00  0.83  0.00
  HS02004852HS02004856    1.00   0.04  0.00  0.00  0.95  0.00  0.00  0.00  0.81  0.00
  HS02004802HS02004478    1.00   0.05  0.00  0.00  0.95  0.00  0.00  0.00  0.02  0.00
  HS02004478WS02006287    1.00   0.06  0.00  0.00  0.71  0.24  0.00  0.00  0.66  0.00
  HS02004817HS02004807    1.00   0.00  0.05  0.00  0.95  0.00  0.00  0.00  0.01  0.00
  HS02004807HS02004802    1.00   0.05  0.00  0.00  0.95  0.00  0.00  0.01  0.00  0.00
  YS02001759YS02001757    1.00   0.00  0.00  0.00  1.00  0.00  0.00  0.00  0.16  0.00
  YS02001762YS02001759    1.00   0.00  0.00  0.00  1.00  0.00  0.00  0.00  0.03  0.00
  YS02001765YS02001762    1.00   0.00  0.00  0.00  1.00  0.00  0.00  0.00  0.14  0.00
  YS02001770YS02001767    1.00   0.00  0.00  0.00  1.00  0.00  0.00  0.00  0.00  0.00
  YS02001774YS02001770    1.00   0.00  0.05  0.00  0.95  0.00  0.00  0.00  0.03  0.00
  YS02001779YS02001774    1.00   0.00  0.00  0.00  1.00  0.00  0.00  0.00  0.18  0.00
  YS02001649YS02001757    1.00   0.00  0.00  0.00  1.00  0.00  0.00  0.00  0.16  0.00
  YS02001767YS02001765    1.00   0.00  0.00  0.00  1.00  0.00  0.00  0.00  0.00  0.00
  YS02006561YS02001783    1.00   0.06  0.00  0.00  0.32  0.62  0.00  0.00  0.48  0.00
  YS02001783YS02001784    1.00   0.00  0.07  0.00  0.93  0.00  0.00  0.00  0.01  0.00
  YS02001784YS02001785    1.00   0.00  0.00  0.00  1.00  0.00  0.00  0.00  0.17  0.00
  YS02001788YS02001790    1.00   0.00  0.00  0.00  0.36  0.64  0.00  0.00  0.37  0.00
  YS02001790YS02001791    1.00   0.00  0.00  0.00  0.30  0.70  0.00  0.00  0.44  0.00
  YS02001791YS02001793    1.00   0.00  0.00  0.00  0.33  0.67  0.00  0.00  0.03  0.00
  YS02001910YS02001907    1.00   0.00  0.00  0.00  0.99  0.00  0.00  0.01  0.12  0.00
  YS02001786YS02001788    1.00   0.00  0.00  0.00  0.35  0.65  0.00  0.00  0.00  0.00
  YS02001915YS02001910    1.00   0.00  0.00  0.00  0.99  0.01  0.00  0.00  0.16  0.00
  YS02001918YS02001915    1.00   0.00  0.00  0.00  0.99  0.00  0.00  0.00  0.54  0.00
  YS02001923YS02001920    1.00   0.00  0.00  0.00  1.00  0.00  0.00  0.00  0.83  0.00
  YS02001926YS02001923    1.00   0.00  0.02  0.00  0.18  0.00  0.80  0.00  0.00  0.00
  YS02001929YS02001926    1.00   0.00  0.04  0.00  0.96  0.00  0.00  0.00  0.75  0.00
  YS02001920YS02001918    1.00   0.00  0.00  0.00  1.00  0.00  0.00  0.00  0.00  0.00
  YS02001629YS02163301    1.00   0.05  0.00  0.00  0.94  0.00  0.00  0.00  0.00  0.00
  YS02001619YS02001622    1.00   0.04  0.00  0.00  0.96  0.00  0.00  0.00  0.00  0.00
  YS02001622YS02001625    1.00   0.05  0.00  0.00  0.95  0.00  0.00  0.00  0.05  0.00
  YS02001625YS02001629    1.00   0.05  0.02  0.00  0.91  0.00  0.02  0.00  0.00  0.00
  YS02163301YS02001633    1.00   0.00  0.05  0.00  0.95  0.00  0.00  0.00  0.00  0.00
  YS02163601YS02164001    1.00   0.00  0.03  0.00  0.97  0.00  0.00  0.00  0.00  0.00
  YS02164001YS02001641    1.00   0.00  0.03  0.00  0.97  0.00  0.00  0.00  0.06  0.00
  YS02001641YS02001644    1.00   0.00  0.00  0.00  1.00  0.00  0.00  0.00  0.00  0.00
  YS02001647YS02001649    1.00   0.00  0.06  0.00  0.94  0.00  0.00  0.00  0.01  0.00
  YS02006553YS02006556    1.00   0.00  0.00  0.00  1.00  0.00  0.00  0.00  0.03  0.00
  YS02006556YS02006558    1.00   0.00  0.00  0.00  1.00  0.00  0.00  0.00  0.00  0.00
  YSB6556YSB1171          1.00   0.01  0.03  0.00  0.96  0.00  0.00  0.00  0.00  0.00
  YS02001907YS02006553    1.00   0.00  0.01  0.00  0.99  0.00  0.00  0.00  0.00  0.00
  YS02006558YS02006561    1.00   0.06  0.00  0.00  0.17  0.77  0.00  0.00  0.49  0.00
  YS02001633YS02163601    1.00   0.00  0.00  0.00  1.00  0.00  0.00  0.00  0.15  0.00
  YS02001644YS02001647    1.00   0.00  0.06  0.00  0.94  0.00  0.00  0.00  0.00  0.00
  YS02001745YS02001748    1.00   0.00  0.00  0.00  0.88  0.01  0.00  0.11  0.04  0.00
  YS02001748YS02001751    1.00   0.00  0.00  0.00  0.96  0.04  0.00  0.00  0.15  0.00
  YS02001751YS02001754    1.00   0.00  0.00  0.00  0.93  0.00  0.00  0.07  0.02  0.00
  YS02001754YS02001757    1.00   0.00  0.00  0.00  1.00  0.00  0.00  0.00  0.18  0.00
  YS02001882YS02001884    1.00   0.05  0.00  0.00  0.95  0.00  0.00  0.00  0.00  0.00
  YS02001884YS02001887    1.00   0.02  0.02  0.00  0.96  0.00  0.00  0.00  0.00  0.00
  YS02001890YS02001895    1.00   0.00  0.05  0.00  0.94  0.00  0.00  0.00  0.00  0.00
  YS02001895YS02001898    1.00   0.06  0.00  0.00  0.93  0.00  0.01  0.00  0.00  0.00
  YS02001898YS02001901    1.00   0.06  0.00  0.00  0.94  0.00  0.00  0.00  0.01  0.00
  YS02001901YS02001904    1.00   0.06  0.00  0.00  0.94  0.00  0.00  0.00  0.00  0.00
  YS02001904YS02001907    1.00   0.00  0.06  0.00  0.94  0.00  0.00  0.00  0.00  0.00
  YS02001887YS02001890    1.00   0.00  0.00  0.00  0.99  0.00  0.01  0.00  0.00  0.00
  YS02001652YS02001649    1.00   0.00  0.00  0.00  1.00  0.00  0.00  0.00  0.16  0.00
  YS02001655YS02001652    1.00   0.00  0.00  0.00  0.93  0.00  0.00  0.07  0.02  0.00
  YS02001658YS02001655    1.00   0.00  0.05  0.00  0.91  0.04  0.00  0.00  0.09  0.00
  YS02001661YS02001658    1.00   0.05  0.00  0.00  0.88  0.07  0.00  0.00  0.11  0.00
  YS02001664YS02001661    1.00   0.04  0.00  0.00  0.90  0.05  0.00  0.00  0.19  0.00
  YSB1154YSB6556          1.00   0.04  0.00  0.00  0.96  0.00  0.00  0.00  0.01  0.00
  YSB1174YSB1171          1.00   0.02  0.02  0.00  0.97  0.00  0.00  0.00  0.00  0.00
  YSB1171HS02004479       1.00   0.01  0.00  0.00  0.98  0.00  0.00  0.00  0.10  0.00
  HS02004881HS02006253    1.00   0.02  0.00  0.00  0.41  0.04  0.00  0.53  0.26  0.00
  YS02001793JiankangQianchi    1.00   0.00  0.00  0.00  0.64  0.35  0.00  0.00  0.41  0.00
  YS02001757CaochengTiaoxuchi    1.00   0.00  0.09  0.00  0.91  0.00  0.00  0.00  0.00  0.00
  WSF200WS02003060        1.00   0.00  0.01  0.00  0.99  0.00  0.00  0.00  0.61  0.00
  1                       1.00   0.00  0.00  0.00  0.00  1.00  0.00  0.00  0.52  0.00
  
  
  *************************
  Conduit Surcharge Summary
  *************************
  
  ----------------------------------------------------------------------------
                                                           Hours        Hours 
                         --------- Hours Full --------   Above Full   Capacity
  Conduit                Both Ends  Upstream  Dnstream   Normal Flow   Limited
  ----------------------------------------------------------------------------
  WS02006229WS02006228        2.24      2.33      2.24      3.41         2.24
  WS02006256WS02006235        4.83      4.84      6.54      4.08         0.01
  WS02006253WS02006251        0.85      0.85      0.88      0.01         0.02
  WS02006252WS02006251        0.75      0.75      0.99      0.76         0.01
  WS02006251WS02006249        0.86      0.86      0.89      0.51         0.46
  WS02006249WS02006248        0.86      0.86      0.89      1.43         0.01
  WS02006248WS02006247        0.90      0.90      0.97      0.01         0.01
  WS02006247WS02006245        0.97      0.99      0.97      1.83         0.92
  WS02006245WS02006243        0.98      0.98      1.02      0.01         0.02
  WS02006243WS02006242        1.04      1.04      1.25      0.01         0.01
  WS02006242WS02006240        1.20      1.20      1.36      0.81         0.01
  WS02006240WS02006239        1.24      1.24      1.37      0.04         0.10
  WS02006239WS02006238        1.55      1.55      1.82      0.11         0.14
  WS02006238WS02006235        1.79      1.79      2.09      0.01         0.01
  WS02006235WS02006234        1.53      1.53      1.69      4.68         0.01
  WS02006234WS02006232        1.68      1.68      2.26      0.28         0.25
  WS02006232WS02006231        1.39      1.39      2.26      0.48         0.01
  WS02006231WS02006230        1.20      1.20      1.45      4.88         0.01
  WS02006230WS02006229        2.76      3.12      2.76      5.16         2.74
[...]
  YS02001779YS02001774        5.72      5.72      5.90      0.01         0.01
  YS02001649YS02001757        5.92      5.92      6.03      0.01         0.01
  YS02001767YS02001765        5.86      5.86      5.88      0.01         0.01
  YS02006561YS02001783        0.92      0.92      1.18      0.01         0.01
  YS02001783YS02001784        1.14      1.18      1.14      1.56         1.14
  YS02001784YS02001785        1.02      1.14      1.02      2.50         1.02
  YS02001788YS02001790        0.97      0.97      1.96      0.01         0.01
  YS02001790YS02001791        1.95      1.96      2.12      1.07         1.02
  YS02001791YS02001793        2.12      2.12      2.57      0.01         0.01
  YS02001910YS02001907        1.24      1.24      1.90      0.01         0.01
  YS02001786YS02001788        0.97      1.02      0.97      2.08         0.97
  YS02001915YS02001910        1.04      1.04      1.24      0.01         0.01
  YS02001918YS02001915        0.88      0.88      1.04      0.01         0.01
  YS02001923YS02001920        0.73      0.73      0.90      0.01         0.01
  YS02001926YS02001923        0.01      0.01      0.01      0.01         0.01
  YS02001929YS02001926        0.01      0.01      0.01      0.01         0.01
  YS02001920YS02001918        0.88      0.88      0.90      0.01         0.01
  YS02001629YS02163301        5.84      5.84      5.85      0.01         0.01
  YS02001619YS02001622        5.53      5.53      5.57      0.01         0.01
  YS02001622YS02001625        5.57      5.57      5.81      0.01         0.01
  YS02001625YS02001629        5.55      5.55      5.81      0.01         0.01
  YS02163301YS02001633        5.85      5.85      5.89      0.01         0.01
  YS02163601YS02164001        5.89      5.89      5.92      0.01         0.01
  YS02164001YS02001641        5.89      5.89      5.89      0.01         0.04
  YS02001641YS02001644        5.89      5.89      5.90      1.72         1.83
  YS02001647YS02001649        5.79      5.79      5.92      0.01         0.01
  YS02006553YS02006556        1.47      1.47      2.00      0.01         0.01
  YS02006556YS02006558        1.65      1.65      2.05      0.01         0.01
  YSB6556YSB1171              0.01      0.01      0.07      0.01         0.01
  YS02001907YS02006553        2.54      2.54      2.79      0.01         0.01
  YS02006558YS02006561        0.99      1.43      0.99      2.35         0.99
  YS02001633YS02163601        5.87      5.87      5.92      0.01         0.01
  YS02001644YS02001647        5.79      5.79      5.90      0.01         0.01
  YS02001745YS02001748        0.01      0.01      5.39      0.01         0.01
  YS02001748YS02001751        5.43      5.43      5.55      0.01         0.01
  YS02001751YS02001754        5.55      5.55      5.74      0.01         0.01
  YS02001754YS02001757        5.79      5.79      6.03      0.01         0.01
  YS02001882YS02001884        1.06      1.06      1.09      0.01         0.01
  YS02001884YS02001887        1.14      1.14      1.17      0.01         0.01
  YS02001890YS02001895        1.03      1.03      1.26      0.01         0.01
  YS02001895YS02001898        1.02      1.02      1.03      0.01         0.01
  YS02001898YS02001901        1.04      1.04      1.13      0.01         0.01
  YS02001901YS02001904        1.10      1.10      1.13      0.01         0.01
  YS02001904YS02001907        1.10      1.10      2.01      0.01         0.01
  YS02001887YS02001890        1.19      1.19      1.22      0.16         0.01
  YS02001652YS02001649        5.80      5.80      5.92      0.01         0.01
  YS02001655YS02001652        5.56      5.56      5.78      0.01         0.01
  YS02001658YS02001655        5.42      5.42      5.56      0.01         0.01
  YS02001661YS02001658        0.09      0.09      5.42      0.01         0.01
  YS02001664YS02001661        0.01      0.01      1.03      0.01         0.01
  HS02004881HS02006253        0.01      0.01      0.65      0.01         0.01
  YS02001793JiankangQianchi        2.45      2.45      4.82      0.01         0.01
  YS02001757CaochengTiaoxuchi        5.28      5.28      6.03      0.01         0.01
  
  
  ***************
  Pumping Summary
  ***************
  
  ---------------------------------------------------------------------------------------------------------
                                                  Min       Avg       Max     Total     Power    % Time Off
                        Percent   Number of      Flow      Flow      Flow    Volume     Usage    Pump Curve
  Pump                 Utilized   Start-Ups       LPS       LPS       LPS  10^6 ltr     Kw-hr    Low   High
  ---------------------------------------------------------------------------------------------------------
  CC-Pump-1               31.24           5      0.00    143.62    200.00     1.260      1.22    0.0    0.0
  CC-Pump-2               16.67           3      0.00    119.64    200.00     0.600      0.74    0.0    0.0
  JK-Pump-1               56.26           5      0.00    216.03    300.00     3.420     52.06    0.0    0.0
  JK-Pump-2               52.09           5      0.00    404.42    683.00     5.893     84.06    0.0   94.8
  XR-Pump-1              100.00           1      0.00     95.00     95.00     2.736     27.93    0.0    0.0
  XR-Pump-2               97.92           2      0.00     92.10     95.00     2.508     23.08    0.0    0.0
  XR-Pump-3               95.83           3      0.00     92.11     95.00     2.451     21.83    0.0    0.0
  XR-Pump-4               95.83           3      0.00     92.11     95.00     2.451     21.83    0.0    0.0
  
  
  ***************************
  Link Pollutant Load Summary
  ***************************
  
  ------------------------------------------------------------------------------------------
                                 COD            SS            TN            TP         NH4-N
  Link                            kg            kg            kg            kg            kg
  ------------------------------------------------------------------------------------------
  WS02003066WSF200           701.995      1318.672        19.123         1.720        10.170
  WS02006287WS02006284       320.852       610.340        10.442         1.031         5.758
  WS02006284WS02006280       321.349       611.157        10.489         1.037         5.788
  WS02006280WS02006229       321.293       611.061        10.486         1.036         5.786
  WS02006229WS02006228       708.987      1331.650        18.859         1.670         9.970
  WS02006256WS02006235       201.818       371.370         4.465         0.347         2.259
  WS02006253WS02006251        59.965       118.307         1.316         0.099         0.652
  WS02006252WS02006251       167.864       308.871         3.475         0.252         1.708
  WS02006251WS02006249       222.295       417.135         4.694         0.345         2.316
  WS02006249WS02006248       197.515       370.612         4.177         0.307         2.062
  WS02006248WS02006247       197.757       371.138         4.189         0.309         2.070
  WS02006247WS02006245       197.669       370.971         4.194         0.310         2.073
  WS02006245WS02006243       197.718       371.108         4.203         0.311         2.079
  WS02006243WS02006242       198.117       371.679         4.225         0.313         2.092
  WS02006242WS02006240       198.878       372.770         4.238         0.314         2.097
  WS02006240WS02006239       200.393       375.206         4.277         0.317         2.117
  WS02006239WS02006238       202.668       378.826         4.345         0.323         2.154
  WS02006238WS02006235       204.558       381.999         4.394         0.327         2.180
  WS02006235WS02006234       392.103       728.554         8.488         0.643         4.244
  WS02006234WS02006232       391.475       727.333         8.479         0.643         4.241
  WS02006232WS02006231       390.389       725.392         8.453         0.641         4.228
  WS02006231WS02006230       389.781       724.347         8.440         0.640         4.221
  WS02006230WS02006229       388.913       722.797         8.417         0.638         4.209
  WS02006228WS02006109       707.515      1328.965        18.818         1.666         9.948
  WS02006116WS02004401       717.876      1347.551        19.517         1.753        10.374
  WS02006115WS02006116       719.686      1350.839        19.567         1.757        10.401
  WS02006113WS02006111       712.203      1335.867        19.495         1.754        10.380
  WS02006112WS02006115       721.294      1353.663        19.631         1.764        10.438
  WS02006111WS02006112       711.444      1334.452        19.473         1.752        10.368
  WS02006110WS02006113       712.906      1337.040        19.527         1.758        10.398
  WS02006109WS02006110       714.538      1339.819        19.608         1.767        10.446
  WS02004411WS02004412       705.819      1325.485        19.256         1.733        10.244
  WS02004401WS02004402       716.166      1344.517        19.456         1.747        10.340
  WS02004413WS02003067       702.617      1319.846        19.132         1.720        10.174
  WS02004412WS02004413       704.411      1322.945        19.216         1.730        10.223
  WS02004410WS02004411       706.994      1327.630        19.286         1.736        10.260
  WS02004409WS02004410       708.213      1329.827        19.323         1.739        10.280
  WS02004407WS02004409       709.223      1331.696        19.342         1.741        10.289
  WS02004406WS02004407       709.526      1332.310        19.338         1.740        10.285
  WS02004405WS02004406       711.744      1336.214        19.432         1.750        10.340
  WS02004404WS02004405       713.239      1339.065        19.434         1.748        10.336
  WS02004403WS02004404       713.069      1338.973        19.356         1.737        10.285
  WS02004402WS02004403       714.504      1341.516        19.408         1.742        10.314
  WS02004139WS02001211      1423.389      2362.929       115.604        14.112        71.263
  WS02004138WS02004139      1429.603      2373.292       116.087        14.171        71.559
  WS02003067WS02003066       702.152      1318.946        19.129         1.721        10.174
  WS02001213WS02003059      1457.777      2417.043       119.149        14.559        73.489
  WS02001212WS02001213      1466.699      2431.815       119.875        14.648        73.937
  WS02001211WS02001212      1468.800      2435.237       120.058        14.671        74.051
  WS02003072WS02003073      2261.961      3898.015       148.434        17.555        90.026
  WS02003069WS02003072      2267.174      3906.506       148.876        17.610        90.299
  WS02003060WS02003069      2269.942      3911.289       149.039        17.628        90.397
  WS02003059WS02003060      1454.769      2411.964       118.932        14.533        73.357
  HS02004901HS02004770        13.095        25.475         0.248         0.019         0.116
  HS02004876HS02004881        45.544        90.394         1.002         0.074         0.493
  HS02004870HS02004876        34.412        68.154         0.800         0.060         0.397
  HS02004842HS02004848         6.459        12.348         0.134         0.009         0.062
  HS02004837HS02004842        11.061        19.645         0.603         0.068         0.356
  HS02004830HS02004837        71.252       124.254         4.735         0.564         2.884
  HS02004824HS02004830        72.045       125.544         4.809         0.573         2.930
  HS02004817HS02004824        98.139       177.969         5.347         0.608         3.193
  HS02004770HS02004777        49.663        97.714         1.021         0.069         0.472
  HS02004799HS02004480       162.642       311.350         4.293         0.383         2.228
  HS02004792HS02004799       147.594       280.639         4.058         0.371         2.124
  HS02004788HS02004792        83.099       158.142         2.692         0.259         1.457
  HS02004785HS02004788        51.151       100.100         1.175         0.089         0.569
  HS02004777HS02004785        50.452        98.953         1.112         0.081         0.530
  HS02004480HS02004478       205.141       395.706         5.001         0.433         2.562
  HS02004479HS02004480        46.132        90.124         1.037         0.091         0.538
  HS02004862HS02004870        25.831        50.390         0.631         0.050         0.316
  HS02004848HS02004852        10.252        19.886         0.210         0.014         0.097
  HS02004856HS02004862        17.526        34.752         0.350         0.023         0.164
  HS02004852HS02004856        10.257        19.892         0.210         0.014         0.097
  HS02004802HS02004478       116.377       215.714         5.495         0.604         3.230
  HS02004478WS02006287       321.053       610.681        10.459         1.033         5.769
  HS02004817HS02004807        96.906       175.992         5.229         0.593         3.119
  HS02004807HS02004802       116.638       216.120         5.528         0.609         3.251
  YS02001759YS02001757       328.569       604.131         6.533         0.456         3.192
  YS02001762YS02001759       159.654       294.148         3.353         0.238         1.659
  YS02001765YS02001762       161.265       298.035         3.404         0.243         1.687
  YS02001770YS02001767       164.389       306.275         3.313         0.224         1.615
  YS02001774YS02001770       288.187       557.907         5.582         0.371         2.700
  YS02001779YS02001774       287.633       556.846         5.664         0.384         2.757
  YS02001649YS02001757       389.619       701.628         7.943         0.545         3.837
  YS02001767YS02001765       163.370       302.808         3.466         0.248         1.721
  YS02006561YS02001783      1024.113      1897.020        21.532         1.610        10.724
  YS02001783YS02001784      1024.011      1896.879        21.528         1.610        10.722
  YS02001784YS02001785      1031.548      1908.989        22.257         1.701        11.178
  YS02001788YS02001790      1032.228      1910.133        22.333         1.711        11.225
  YS02001790YS02001791      1033.392      1912.073        22.437         1.724        11.290
  YS02001791YS02001793      1033.352      1912.023        22.434         1.724        11.288
  YS02001910YS02001907       393.486       725.178         9.491         0.729         4.869
  YS02001786YS02001788      1031.855      1909.545        22.287         1.705        11.197
  YS02001915YS02001910       393.535       725.250         9.443         0.722         4.837
  YS02001918YS02001915       191.844       338.659         5.301         0.482         2.856
  YS02001923YS02001920       169.791       302.331         3.288         0.233         1.603
  YS02001926YS02001923       167.674       298.654         3.196         0.223         1.549
  YS02001929YS02001926       165.691       295.195         3.108         0.214         1.497
  YS02001920YS02001918       190.374       335.426         5.249         0.478         2.827
  YS02001629YS02163301        96.640       170.784         2.041         0.132         0.952
  YS02001619YS02001622       176.365       321.898         3.614         0.236         1.689
  YS02001622YS02001625       175.192       320.041         3.585         0.235         1.676
  YS02001625YS02001629        97.702       172.513         2.065         0.133         0.963
  YS02163301YS02001633        97.039       171.730         2.044         0.133         0.955
  YS02163601YS02164001       407.317       735.653         7.937         0.565         3.802
  YS02164001YS02001641       406.819       734.820         7.917         0.563         3.791
  YS02001641YS02001644       406.945       734.967         7.913         0.562         3.789
  YS02001647YS02001649       494.303       902.779         9.958         0.689         4.777
  YS02006553YS02006556       689.564      1266.431        14.883         1.142         7.498
  YS02006556YS02006558       689.508      1266.322        14.854         1.138         7.479
  YSB6556YSB1171              26.523        51.969         0.537         0.045         0.272
  YS02001907YS02006553       689.654      1266.610        14.892         1.143         7.504
  YS02006558YS02006561      1024.106      1896.986        21.532         1.610        10.724
  YS02001633YS02163601       407.960       736.632         7.915         0.561         3.785
  YS02001644YS02001647       499.064       911.702        10.027         0.694         4.807
  YS02001745YS02001748       249.945       467.322         5.436         0.372         2.691
  YS02001748YS02001751       248.287       464.139         5.491         0.382         2.734
  YS02001751YS02001754       247.455       462.764         5.489         0.384         2.737
  YS02001754YS02001757       248.282       464.022         5.658         0.407         2.846
  YS02001882YS02001884         2.664         4.587         0.054         0.004         0.027
  YS02001884YS02001887         6.741        11.945         0.133         0.010         0.066
  YS02001890YS02001895       451.597       847.444         8.319         0.626         4.059
  YS02001895YS02001898       451.481       847.324         8.314         0.625         4.056
  YS02001898YS02001901       451.313       847.044         8.310         0.625         4.054
  YS02001901YS02001904       451.186       846.886         8.316         0.626         4.058
  YS02001904YS02001907       451.427       847.267         8.370         0.633         4.093
  YS02001887YS02001890       468.874       881.703         8.663         0.654         4.232
  YS02001652YS02001649       203.963       378.408         4.116         0.296         1.930
  YS02001655YS02001652       204.898       379.886         4.141         0.298         1.941
  YS02001658YS02001655       204.658       379.461         4.059         0.287         1.887
  YS02001661YS02001658       208.457       386.159         4.138         0.292         1.923
  YS02001664YS02001661       217.651       401.332         4.345         0.306         2.018
  YSB1154YSB6556              26.084        51.270         0.486         0.038         0.239
  YSB1174YSB1171              18.022        35.564         0.362         0.029         0.181
  YSB1171HS02004479           46.096        90.065         1.040         0.092         0.540
  HS02004881HS02006253        51.844       103.370         1.116         0.081         0.547
  YS02001793JiankangQianchi      1033.153      1911.656        22.413         1.721        11.275
  YS02001757CaochengTiaoxuchi       519.521       951.617        10.797         0.777         5.305
  WSF200WS02003060           701.891      1318.404        19.138         1.722        10.180
  1                         2268.074      3906.760       149.276        17.664        90.562
  CC-Pump-1                  113.286       208.388         2.343         0.170         1.152
  CC-Pump-2                   54.497       100.355         1.126         0.082         0.554
  JK-Pump-1                  249.368       462.815         5.396         0.416         2.715
  JK-Pump-2                  489.353       913.219        10.267         0.772         5.119
  XR-Pump-1                  402.102       664.889        33.292         4.076        20.557
  XR-Pump-2                  351.619       584.118        28.454         3.472        17.535
  XR-Pump-3                  339.760       565.147        27.320         3.330        16.827
  XR-Pump-4                  339.760       565.147        27.320         3.330        16.827
  

  Analysis begun on:  Sat Jul 10 16:56:28 2021
  Analysis ended on:  Sat Jul 10 16:56:30 2021
  Total elapsed time: 00:00:02