
  EPA STORM WATER MANAGEMENT MODEL - VERSION 5.1 (Build 5.3.0.dev0)
  --------------------------------------------------------------

  WARNING 04: minimum elevation drop used for Conduit WS02004404WS02004405
  WARNING 03: negative offset ignored for Link YS02001904YS02001907
  
  *********************************************************
  NOTE: The summary statistics displayed in this report are
  based on results found at every computational time step,  
  not just on results from each reporting time step.
  *********************************************************
  
  ****************
  Analysis Options
  ****************
  Flow Units ............... LPS
  Process Models:
    Rainfall/Runoff ........ YES
    RDII ................... NO
    Snowmelt ............... NO
    Groundwater ............ NO
    Flow Routing ........... YES
    Ponding Allowed ........ NO
    Water Quality .......... YES
  Infiltration Method ...... HORTON
  Flow Routing Method ...... DYNWAVE
  Surcharge Method ......... EXTRAN
  Starting Date ............ 08/28/2015 08:00:00
  Ending Date .............. 08/28/2015 16:00:00
  Antecedent Dry Days ...... 8.0
  Report Time Step ......... 00:01:00
  Wet Time Step ............ 00:01:00
  Dry Time Step ............ 00:01:00
  Routing Time Step ........ 5.00 sec
  Variable Time Step ....... YES
  Maximum Trials ........... 8
  Number of Threads ........ 4
  Head Tolerance ........... 0.001500 m
  
  
  **************************        Volume         Depth
  Runoff Quantity Continuity     hectare-m            mm
  **************************     ---------       -------
  Total Precipitation ......        27.779        60.819
  Evaporation Loss .........         0.000         0.000
  Infiltration Loss ........         1.768         3.870
  Surface Runoff ...........        24.134        52.839
  Final Storage ............         1.881         4.118
  Continuity Error (%) .....        -0.012
  
  
  **************************           COD            SS            TN            TP         NH4-N
  Runoff Quality Continuity             kg            kg            kg            kg            kg
  **************************    ----------    ----------    ----------    ----------    ----------
  Initial Buildup ..........     41378.656     70582.865      1804.177       168.684      1032.807
  Surface Buildup ..........        98.667       217.144         3.867         0.324         2.025
  Wet Deposition ...........         0.000         0.000         0.000         0.000         0.000
  Sweeping Removal .........         0.000         0.000         0.000         0.000         0.000
  Infiltration Loss ........       155.921       282.443         4.184         0.326         2.122
  BMP Removal ..............         0.000         0.000         0.000         0.000         0.000
  Surface Runoff ...........     28692.651     54510.107       701.694        53.145       350.255
  Remaining Buildup ........     12625.278     16005.678      1101.923       115.517       682.325
  Continuity Error (%) .....         0.008         0.003         0.013         0.012         0.013
  
  
  **************************        Volume        Volume
  Flow Routing Continuity        hectare-m      10^6 ltr
  **************************     ---------     ---------
  Dry Weather Inflow .......         0.630         6.296
  Wet Weather Inflow .......        24.130       241.304
  Groundwater Inflow .......         0.000         0.000
  RDII Inflow ..............         0.000         0.000
  External Inflow ..........         0.105         1.045
  External Outflow .........         3.881        38.810
  Flooding Loss ............        20.456       204.562
  Evaporation Loss .........         0.000         0.000
  Exfiltration Loss ........         0.000         0.000
  Initial Stored Volume ....         0.076         0.761
  Final Stored Volume ......         0.619         6.193
  Continuity Error (%) .....        -0.064
  
  
  **************************           COD            SS            TN            TP         NH4-N
  Quality Routing Continuity            kg            kg            kg            kg            kg
  **************************    ----------    ----------    ----------    ----------    ----------
  Dry Weather Inflow .......      1573.993      2518.389       151.103        18.888        94.440
  Wet Weather Inflow .......     28690.853     54506.966       701.644        53.141       350.230
  Groundwater Inflow .......         0.000         0.000         0.000         0.000         0.000
  RDII Inflow ..............         0.000         0.000         0.000         0.000         0.000
  External Inflow ..........       187.321       299.713        17.983         2.248        11.239
  External Outflow .........      4311.779      7891.216       160.781        15.623        88.981
  Flooding Loss ............     25588.210     48451.466       684.668        56.020       352.379
  Exfiltration Loss ........         0.000         0.000         0.000         0.000         0.000
  Mass Reacted .............         0.000         0.000         0.000         0.000         0.000
  Initial Stored Mass ......         0.000         0.000         0.000         0.000         0.000
  Final Stored Mass ........       485.749       884.126        19.136         1.886        10.757
  Continuity Error (%) .....         0.218         0.171         0.706         1.007         0.832
  
  
  *************************
  Highest Continuity Errors
  *************************
  Node YS02001884 (10.81%)
  Node HS02004842 (1.91%)
  Node WS02003059 (1.24%)
  
  
  ***************************
  Time-Step Critical Elements
  ***************************
  Link WS02006252WS02006251 (95.28%)
  
  
  ********************************
  Highest Flow Instability Indexes
  ********************************
  Link YS02163601YS02164001 (26)
  Link YS02163301YS02001633 (24)
  Link YS02001629YS02163301 (23)
  Link YS02164001YS02001641 (23)
  Link YS02001619YS02001622 (22)
  
  
  *************************
  Routing Time Step Summary
  *************************
  Minimum Time Step           :     0.43 sec
  Average Time Step           :     0.78 sec
  Maximum Time Step           :     5.00 sec
  Percent in Steady State     :    -0.00
  Average Iterations per Step :     3.43
  Percent Not Converging      :     9.68
  
  
  ***************************
  Subcatchment Runoff Summary
  ***************************
  
  ------------------------------------------------------------------------------------------------------------------------------
                            Total      Total      Total      Total     Imperv       Perv      Total       Total     Peak  Runoff
                           Precip      Runon       Evap      Infil     Runoff     Runoff     Runoff      Runoff   Runoff   Coeff
  Subcatchment                 mm         mm         mm         mm         mm         mm         mm    10^6 ltr      LPS
  ------------------------------------------------------------------------------------------------------------------------------
  sub0                      60.82       0.00       0.00       0.80      56.53       3.46      59.98        0.05    10.50   0.986
  sub1                      60.82       0.00       0.00       1.44      54.04       5.25      59.29        0.39    83.02   0.975
  sub2                      60.82       0.00       0.00       6.74      38.23      15.77      54.00        0.50   106.60   0.888
  sub3                      60.82       0.00       0.00       7.37      38.19      15.13      53.32        1.20   248.78   0.877
  sub4                      60.82       0.00       0.00       1.66      53.86       5.03      58.89        1.23   248.54   0.968
  sub5                      60.82       0.00       0.00       0.87      56.47       3.39      59.86        0.68   142.18   0.984
  sub7                      60.82       0.00       0.00       1.10      55.29       4.38      59.67        0.20    42.90   0.981
  sub8                      60.82       0.00       0.00       1.12      55.28       4.36      59.64        0.38    80.86   0.981
  sub9                      60.82       0.00       0.00       1.12      55.28       4.35      59.63        0.29    60.78   0.980
  sub10                     60.82       0.00       0.00       1.00      55.87       3.87      59.73        0.66   138.70   0.982
  sub11                     60.82       0.00       0.00       0.98      55.89       3.89      59.78        0.69   147.50   0.983
  sub12                     60.82       0.00       0.00       1.59      52.87       6.32      59.19        0.52   111.81   0.973
  sub14                     60.82       0.00       0.00       1.12      55.27       4.35      59.62        0.57   120.17   0.980
  sub15                     60.82       0.00       0.00       4.63      42.51      13.61      56.13        0.97   207.66   0.923
  sub16                     60.82       0.00       0.00       4.73      40.71      15.34      56.06        0.59   128.49   0.922
  sub17                     60.82       0.00       0.00       4.62      41.32      14.85      56.17        0.48   105.20   0.923
  sub22                     60.82       0.00       0.00       7.08      34.63      19.07      53.70        3.39   740.07   0.883
  sub23                     60.82       0.00       0.00       5.73      38.28      16.78      55.05        2.63   572.39   0.905
  sub60                     60.82       0.00       0.00       2.82      50.94       4.48      55.41       16.80  2846.95   0.911
  sub61                     60.82       0.00       0.00       4.00      49.03       6.34      55.38       17.08  3085.21   0.911
  sub62                     60.82       0.00       0.00       1.54      54.08       3.33      57.41       17.65  3143.69   0.944
  sub63                     60.82       0.00       0.00       7.96      42.19       9.68      51.87       15.70  2828.43   0.853
  sub64                     60.82       0.00       0.00       3.83      49.11       5.29      54.39       16.54  2774.44   0.894
  sub65                     60.82       0.00       0.00       3.19      50.16       4.71      54.88       16.88  2822.73   0.902
  sub66                     60.82       0.00       0.00       8.72      41.33       8.47      49.81       15.27  2531.03   0.819
  sub67                     60.82       0.00       0.00       1.40      54.82       3.47      58.29       17.99  3361.28   0.958
  sub68                     60.82       0.00       0.00       2.99      51.00       5.52      56.52       17.38  3195.92   0.929
  sub69                     60.82       0.00       0.00       2.90      50.99       6.23      57.22       13.37  2579.68   0.941
  sub70                     60.82      58.42       0.00      10.22      76.81      27.26     104.07       23.82  3821.74   0.873
  sub71                     60.82       0.00       0.00       1.59      53.69       3.27      56.96       13.45  2341.64   0.937
  sub72                     60.82       0.00       0.00       1.69      50.29       2.57      52.86       10.77  1535.61   0.869
  1                         60.82     101.35       0.00       1.40     103.49      45.46     148.94       35.00  4610.91   0.918
  2                         60.82       0.00       0.00       3.09      15.04      23.51      38.56       15.42  1925.59   0.634
  
  
  ****************************
  Subcatchment Washoff Summary
  ****************************
  
  ------------------------------------------------------------------------------------------
                                 COD            SS            TN            TP         NH4-N
  Subcatchment                    kg            kg            kg            kg            kg
  ------------------------------------------------------------------------------------------
  sub0                        11.538        20.058         0.300         0.027         0.156
  sub1                        55.612       104.459         1.418         0.109         0.719
  sub2                        49.774        95.120         1.297         0.096         0.631
  sub3                       126.707       241.790         3.239         0.242         1.582
  sub4                       141.501       279.085         3.525         0.240         1.769
  sub5                       120.956       219.725         3.092         0.254         1.586
  sub7                        27.220        51.842         0.693         0.051         0.351
  sub8                        41.958        83.529         1.058         0.070         0.531
  sub9                        35.606        69.177         0.901         0.064         0.455
  sub10                      100.836       187.665         2.569         0.201         1.310
  sub11                       97.297       184.006         2.478         0.187         1.259
  sub12                       83.619       152.302         2.160         0.176         1.103
  sub14                       75.720       144.657         1.922         0.141         0.974
  sub15                      124.492       229.721         3.230         0.257         1.610
  sub16                       79.976       146.025         2.086         0.169         1.043
  sub17                       72.487       129.974         1.890         0.159         0.949
  sub22                      467.142       855.349        11.934         0.974         5.936
  sub23                      247.038       474.707         6.533         0.473         3.178
  sub60                     1883.450      3698.357        44.557         3.109        22.215
  sub61                     2248.844      4282.314        53.314         4.062        26.825
  sub62                     2151.104      4178.798        51.777         3.704        25.944
  sub63                     1854.600      3512.888        44.993         3.472        22.070
  sub64                     2515.361      4712.673        58.951         4.694        29.514
  sub65                     2532.233      4765.477        59.444         4.673        29.776
  sub66                     1615.628      3138.517        37.953         2.765        18.579
  sub67                     2924.329      5415.037        71.192         5.728        36.162
  sub68                     2318.000      4421.597        56.160         4.224        28.142
  sub69                     1914.043      3597.637        47.174         3.658        23.743
  sub70                     3407.908      6243.689        96.430         7.525        48.744
  sub71                     1462.997      2918.550        35.184         2.328        17.497
  sub72                     1547.928      2957.238        34.963         2.658        17.464
  1                         3173.911      5844.548        89.650         6.978        44.983
  2                          504.787       994.922        13.230         0.860         5.944
  ------------------------------------------------------------------------------------------
  System                   34014.603     64351.433       845.298        64.329       422.741
  
  
  ******************
  Node Depth Summary
  ******************
  
  ---------------------------------------------------------------------------------
                                 Average  Maximum  Maximum  Time of Max    Reported
                                   Depth    Depth      HGL   Occurrence   Max Depth
  Node                 Type       Meters   Meters   Meters  days hr:min      Meters
  ---------------------------------------------------------------------------------
  WS02001211           JUNCTION     0.35     0.50     5.34     0  03:03        0.50
  WS02001212           JUNCTION     0.13     0.30     5.37     0  03:03        0.30
  WS02001213           JUNCTION     0.41     0.67     5.43     0  03:02        0.67
  WS02003069           JUNCTION     0.27     0.58     5.17     0  03:02        0.58
  WS02003072           JUNCTION     0.34     0.64     5.01     0  03:02        0.64
  WS02003073           JUNCTION     0.19     0.40     4.46     0  03:03        0.40
  WS02003060           JUNCTION     0.25     0.52     5.45     0  03:02        0.52
  WS02003066           JUNCTION     0.21     0.43     5.98     0  03:01        0.43
  WS02003059           JUNCTION     0.49     0.76     5.45     0  03:02        0.76
  WS02003067           JUNCTION     0.51     0.85     6.17     0  03:01        0.85
  WS02004401           JUNCTION     0.69     1.62     7.62     0  03:00        1.62
  WS02004402           JUNCTION     0.71     1.58     7.54     0  03:00        1.58
  WS02004403           JUNCTION     0.72     1.52     7.45     0  03:01        1.52
  WS02004404           JUNCTION     0.79     1.54     7.39     0  03:01        1.54
  WS02004406           JUNCTION     0.78     1.41     7.24     0  03:01        1.41
  WS02004409           JUNCTION     0.46     1.26     7.03     0  03:01        1.26
  WS02004410           JUNCTION     0.48     1.19     6.91     0  03:01        1.19
  WS02004411           JUNCTION     0.49     1.12     6.80     0  03:01        1.12
  WS02004412           JUNCTION     0.50     1.05     6.69     0  03:01        1.05
  WS02004413           JUNCTION     0.64     1.11     6.58     0  03:01        1.11
  WS02004405           JUNCTION     0.78     1.50     7.35     0  03:01        1.50
  WS02006109           JUNCTION     0.83     2.51     9.12     0  03:00        2.51
  WS02006110           JUNCTION     0.79     2.20     8.79     0  03:00        2.20
  WS02006111           JUNCTION     0.34     1.46     8.17     0  03:01        1.46
  WS02006112           JUNCTION     0.88     2.07     7.95     0  03:01        2.07
  WS02006113           JUNCTION     0.40     1.59     8.49     0  03:00        1.59
  WS02006115           JUNCTION     0.59     1.68     7.82     0  03:00        1.68
  WS02006116           JUNCTION     0.67     1.69     7.73     0  03:00        1.69
  WS02006230           JUNCTION     0.75     2.44     9.18     0  03:00        2.44
  WS02006231           JUNCTION     0.45     1.68     8.80     0  03:00        1.68
  WS02006232           JUNCTION     0.49     1.42     8.46     0  03:00        1.42
  WS02006234           JUNCTION     0.32     0.90     8.06     0  03:01        0.90
  WS02006235           JUNCTION     0.26     0.56     7.73     0  03:01        0.56
  WS02006238           JUNCTION     0.28     0.59     7.74     0  03:01        0.59
  WS02006240           JUNCTION     0.20     0.51     7.80     0  03:02        0.51
  WS02006242           JUNCTION     0.26     0.59     7.86     0  03:02        0.59
  WS02006243           JUNCTION     0.16     0.47     7.89     0  03:02        0.47
  WS02006245           JUNCTION     0.18     0.46     7.95     0  03:02        0.46
  WS02006247           JUNCTION     0.20     0.49     7.99     0  03:02        0.49
  WS02006248           JUNCTION     0.16     0.44     8.02     0  03:01        0.43
  WS02006249           JUNCTION     0.20     0.48     8.07     0  03:01        0.47
  WS02006239           JUNCTION     0.23     0.56     7.77     0  03:01        0.56
  WS02006251           JUNCTION     0.18     0.48     8.15     0  03:02        0.47
  WS02006252           JUNCTION     0.34     0.35     8.60     0  01:17        0.35
  WS02006253           JUNCTION     0.29     2.61    10.26     0  03:04        1.06
  WS02006256           JUNCTION     2.30     2.35     9.28     0  00:00        2.35
  WS02004138           JUNCTION     0.19     0.20     7.45     0  00:00        0.19
  WS02004139           JUNCTION     0.26     0.34     5.25     0  03:03        0.34
  WS02004407           JUNCTION     0.22     0.74     7.05     0  03:01        0.74
  WS02006228           JUNCTION     0.86     2.77     9.42     0  03:01        2.77
  WS02006229           JUNCTION     0.85     2.89     9.59     0  03:00        2.89
  WS02006280           JUNCTION     0.23     1.39     9.66     0  03:00        1.39
  WS02006284           JUNCTION     0.53     1.51     9.90     0  03:00        1.51
  WS02006287           JUNCTION     0.25     1.21    10.16     0  03:01        1.21
  WSF200               JUNCTION     0.19     0.44     5.67     0  03:01        0.44
  HS02004901           JUNCTION     0.26     1.42    11.24     0  02:50        1.42
  HS02004881           JUNCTION     0.03     0.29     9.32     0  03:03        0.24
  HS02004876           JUNCTION     0.11     2.26    11.29     0  03:03        0.61
  HS02004870           JUNCTION     0.07     0.48     9.77     0  03:03        0.48
  HS02004862           JUNCTION     0.08     0.52     9.90     0  03:01        0.52
  HS02004856           JUNCTION     0.14     0.59    10.01     0  03:01        0.58
  HS02004852           JUNCTION     0.07     0.57    10.08     0  03:01        0.56
  HS02004848           JUNCTION     0.07     0.55    10.15     0  03:01        0.55
  HS02004842           JUNCTION     0.39     0.93    10.20     0  03:01        0.93
  HS02004837           JUNCTION     0.09     0.63    10.21     0  03:01        0.63
  HS02004830           JUNCTION     0.12     0.76    10.23     0  03:01        0.76
  HS02004824           JUNCTION     0.13     0.85    10.25     0  03:01        0.84
  HS02004817           JUNCTION     0.58     1.41    10.26     0  03:01        1.40
  HS02004807           JUNCTION     0.26     1.08    10.25     0  03:01        1.08
  HS02004802           JUNCTION     0.30     1.13    10.26     0  03:01        1.13
  HS02004799           JUNCTION     0.30     1.45    10.66     0  03:01        1.45
  HS02004792           JUNCTION     0.18     1.44    10.96     0  03:01        1.44
  HS02004788           JUNCTION     0.12     1.23    11.13     0  02:50        1.18
  HS02004785           JUNCTION     0.16     1.32    11.22     0  02:50        1.23
  HS02004777           JUNCTION     0.28     1.44    11.24     0  02:50        1.40
  HS02004770           JUNCTION     0.25     1.42    11.25     0  02:50        1.41
  HS02004480           JUNCTION     0.24     1.22    10.46     0  03:01        1.22
  HS02004479           JUNCTION     0.28     1.26    10.47     0  03:01        1.26
  HS02004478           JUNCTION     0.19     1.03    10.25     0  03:01        1.03
  YS02001745           JUNCTION     1.06     2.35     9.87     0  01:22        2.27
  YS02001748           JUNCTION     1.43     2.27     9.35     0  01:22        2.27
  YS02001751           JUNCTION     1.57     2.20     9.08     0  01:22        2.19
  YS02001754           JUNCTION     1.78     2.20     8.81     0  01:22        2.18
  YS02001762           JUNCTION     1.95     2.15     8.55     0  02:50        2.15
  YS02001765           JUNCTION     1.89     2.09     8.54     0  02:50        2.08
  YS02001767           JUNCTION     1.85     2.02     8.51     0  03:03        2.01
  YS02001770           JUNCTION     1.83     1.95     8.44     0  01:43        1.95
  YS02001774           JUNCTION     1.89     2.00     8.42     0  03:03        1.99
  YS02001779           JUNCTION     1.61     1.68     8.37     0  01:21        1.68
  YS02001882           JUNCTION     1.10     1.83     8.55     0  02:50        1.82
  YS02001884           JUNCTION     1.20     1.93     8.55     0  02:50        1.92
  YS02001759           JUNCTION     1.99     2.21     8.57     0  02:28        2.21
  YS02001887           JUNCTION     1.28     2.00     8.54     0  02:13        2.00
  YS02001890           JUNCTION     1.26     1.81     8.32     0  01:26        1.81
  YS02001898           JUNCTION     1.02     1.58     8.31     0  01:26        1.55
  YS02001901           JUNCTION     1.13     1.69     8.29     0  01:26        1.67
  YS02001904           JUNCTION     1.11     1.65     8.28     0  01:26        1.63
  YS02001907           JUNCTION     1.44     1.96     8.25     0  01:26        1.96
  YS02001910           JUNCTION     1.30     2.00     8.51     0  02:13        2.00
  YS02001915           JUNCTION     1.15     2.00     8.72     0  02:13        2.00
  YS02001918           JUNCTION     0.89     1.81     8.88     0  01:26        1.81
  YS02001619           JUNCTION     1.44     1.61     8.54     0  01:21        1.61
  YS02001629           JUNCTION     1.76     1.85     8.40     0  01:21        1.85
  YS02001641           JUNCTION     1.86     1.97     8.40     0  02:51        1.96
  YS02001644           JUNCTION     1.85     1.92     8.35     0  01:22        1.92
  YS02001652           JUNCTION     1.78     2.16     8.76     0  01:23        2.14
  YS02001655           JUNCTION     1.58     2.20     9.05     0  01:22        2.20
  YS02001920           JUNCTION     1.00     2.14     9.15     0  01:27        2.00
  YS02001923           JUNCTION     0.80     2.03     9.29     0  01:27        1.87
  YS02001926           JUNCTION     0.77     1.90     9.35     0  01:27        1.80
  YS02001929           JUNCTION     0.60     1.78     9.47     0  01:27        1.69
  YS02001658           JUNCTION     1.35     2.30     9.44     0  01:22        2.30
  YS02001661           JUNCTION     1.15     2.43     9.84     0  02:59        2.43
  YS02001664           JUNCTION     0.68     2.31    10.23     0  02:59        2.31
  YS02001622           JUNCTION     1.45     1.62     8.52     0  01:21        1.57
  YS02001633           JUNCTION     1.88     2.08     8.53     0  02:35        2.08
  YS02001649           JUNCTION     1.93     2.05     8.44     0  01:22        2.05
  YS02001757           JUNCTION     2.07     2.21     8.47     0  01:22        2.21
  YS02001895           JUNCTION     1.01     1.57     8.32     0  01:26        1.56
  YS02001625           JUNCTION     1.71     1.78     8.38     0  01:21        1.78
  YS02163301           JUNCTION     1.81     1.95     8.47     0  02:51        1.95
  YS02163601           JUNCTION     1.92     2.08     8.48     0  03:02        2.07
  YS02164001           JUNCTION     1.85     1.98     8.43     0  03:04        1.97
  YS02001647           JUNCTION     1.70     1.83     8.44     0  01:22        1.79
  YSB1154              JUNCTION     0.42     1.43    10.49     0  03:01        1.43
  YSB6556              JUNCTION     0.31     1.31    10.48     0  03:01        1.31
  YSB1174              JUNCTION     0.37     1.37    10.48     0  03:01        1.37
  YSB1171              JUNCTION     0.57     1.57    10.47     0  03:01        1.57
  YS02006553           JUNCTION     1.45     2.14     8.42     0  01:29        2.12
  YS02006561           JUNCTION     0.71     1.74     8.40     0  01:29        1.43
  YS02006556           JUNCTION     1.43     2.33     8.64     0  01:29        2.31
  YS02006558           JUNCTION     1.48     2.47     8.74     0  03:01        2.47
  YS02001783           JUNCTION     1.05     2.24     8.38     0  01:29        1.78
  YS02001784           JUNCTION     1.03     2.26     8.32     0  01:29        1.68
  YS02001786           JUNCTION     0.93     2.23     8.26     0  01:29        1.47
  YS02001788           JUNCTION     0.85     2.28     8.26     0  01:29        1.28
  YS02001790           JUNCTION     1.03     1.96     7.60     0  01:28        1.39
  YS02001791           JUNCTION     1.04     1.79     7.26     0  01:28        1.31
  YS02001793           JUNCTION     1.52     1.89     6.72     0  01:28        1.80
  WSC                  OUTFALL      0.19     0.40     1.07     0  03:03        0.40
  3                    OUTFALL      0.00     0.00     7.16     0  00:00        0.00
  4                    OUTFALL      0.00     0.00     7.67     0  00:00        0.00
  5                    OUTFALL      0.00     0.00     4.91     0  00:00        0.00
  JK-storage           STORAGE      5.28     5.80     6.60     0  01:29        5.80
  CC-storage           STORAGE      1.27     1.47     8.47     0  02:17        1.47
  XR-storage           STORAGE      7.22     7.72     5.72     0  01:42        7.72
  
  
  *******************
  Node Inflow Summary
  *******************
  
  -------------------------------------------------------------------------------------------------
                                  Maximum  Maximum                  Lateral       Total        Flow
                                  Lateral    Total  Time of Max      Inflow      Inflow     Balance
                                   Inflow   Inflow   Occurrence      Volume      Volume       Error
  Node                 Type           LPS      LPS  days hr:min    10^6 ltr    10^6 ltr     Percent
  -------------------------------------------------------------------------------------------------
  WS02001211           JUNCTION      7.35   268.48     0  03:03       0.212        1.62       0.607
  WS02001212           JUNCTION      0.00   261.27     0  03:02           0        1.48       0.156
  WS02001213           JUNCTION      0.00   261.42     0  03:02           0        1.49       0.636
  WS02003069           JUNCTION      0.32   945.97     0  03:02     0.00922        7.46       0.091
  WS02003072           JUNCTION      0.00   945.65     0  03:02           0        7.46       0.143
  WS02003073           JUNCTION      1.82   947.26     0  03:03      0.0524         7.5       0.125
  WS02003060           JUNCTION     16.53  1207.70     0  03:01       0.476        8.88       0.071
  WS02003066           JUNCTION      0.00  1190.96     0  03:01           0        8.32       0.024
  WS02003059           JUNCTION      0.00   261.74     0  03:02           0        1.51       1.252
  WS02003067           JUNCTION      0.00  1190.74     0  03:01           0        8.33       0.060
  WS02004401           JUNCTION      0.00  1192.01     0  03:01           0        8.45       0.143
  WS02004402           JUNCTION      0.00  1192.03     0  03:01           0        8.44       0.143
  WS02004403           JUNCTION      0.00  1192.03     0  03:01           0        8.43       0.137
  WS02004404           JUNCTION      0.16  1192.24     0  03:01     0.00467        8.42       0.111
  WS02004406           JUNCTION      0.00  1192.37     0  03:01           0         8.4       0.269
  WS02004409           JUNCTION      0.00  1190.66     0  03:01           0        8.37       0.063
  WS02004410           JUNCTION      0.00  1190.62     0  03:01           0        8.37       0.085
  WS02004411           JUNCTION      0.00  1190.56     0  03:01           0        8.36       0.097
  WS02004412           JUNCTION      0.00  1190.61     0  03:01           0        8.35       0.118
  WS02004413           JUNCTION      0.00  1190.71     0  03:01           0        8.34       0.207
  WS02004405           JUNCTION      0.04  1192.27     0  03:01      0.0011        8.41       0.168
  WS02006109           JUNCTION      1.23  1087.30     0  03:01      0.0354        8.03       0.127
  WS02006110           JUNCTION      0.00  1087.50     0  03:01           0        8.02       0.136
  WS02006111           JUNCTION      0.00  1087.64     0  03:01           0        8.01       0.020
  WS02006112           JUNCTION    105.20  1191.96     0  03:01       0.482        8.49       0.193
  WS02006113           JUNCTION      0.00  1087.41     0  03:01           0        8.01       0.043
  WS02006115           JUNCTION      0.00  1191.98     0  03:01           0        8.47       0.143
  WS02006116           JUNCTION      0.00  1192.00     0  03:01           0        8.46       0.063
  WS02006230           JUNCTION     10.28   910.70     0  03:01       0.296        5.24       0.111
  WS02006231           JUNCTION      0.00   910.71     0  03:01           0        5.02       0.054
  WS02006232           JUNCTION      0.00   910.72     0  03:01           0        5.02       0.123
  WS02006234           JUNCTION      0.00   910.72     0  03:01           0        5.01       0.057
  WS02006235           JUNCTION      0.00  1403.75     0  03:01           0        12.6       0.017
  WS02006238           JUNCTION      0.00   266.78     0  03:03           0        1.41       0.149
  WS02006240           JUNCTION      0.00   264.16     0  03:02           0         1.4       0.172
  WS02006242           JUNCTION      0.00   263.84     0  03:02           0         1.4       0.248
  WS02006243           JUNCTION      0.00   264.56     0  03:02           0        1.39      -0.022
  WS02006245           JUNCTION      0.00   265.81     0  03:01           0         1.4       0.202
  WS02006247           JUNCTION      0.00   267.27     0  03:01           0         1.4       0.164
  WS02006248           JUNCTION      0.00   268.66     0  03:01           0         1.4       0.053
  WS02006249           JUNCTION      0.00   270.56     0  03:01           0         1.4       0.250
  WS02006239           JUNCTION      0.00   265.54     0  03:03           0         1.4       0.211
  WS02006251           JUNCTION      0.08  1387.81     0  03:02     0.00222        8.24       0.013
  WS02006252           JUNCTION      0.00   200.00     0  01:17           0        4.84       0.009
  WS02006253           JUNCTION     10.50  1359.71     0  03:04      0.0486         3.4       0.016
  WS02006256           JUNCTION      0.00   300.00     0  00:00           0        7.46      -0.019
  WS02004138           JUNCTION      0.00   380.00     0  00:00           0        10.9       0.058
  WS02004139           JUNCTION      0.32   648.63     0  03:03     0.00924        12.5       0.071
  WS02004407           JUNCTION      0.00  1192.29     0  03:01           0        8.38       0.027
  WS02006228           JUNCTION      0.00  1086.05     0  03:01           0           8       0.073
  WS02006229           JUNCTION      0.00  1986.30     0  03:01           0        12.4       0.070
  WS02006280           JUNCTION      0.00  1985.98     0  03:01           0        11.7      -0.001
  WS02006284           JUNCTION      0.10  1985.94     0  03:01     0.00275        11.7       0.011
  WS02006287           JUNCTION      0.00  1985.82     0  03:01           0        11.7       0.019
  WSF200               JUNCTION      0.00  1191.05     0  03:01           0        8.32       0.012
  HS02004901           JUNCTION    128.49   128.49     0  03:01       0.587       0.587       0.355
  HS02004881           JUNCTION     42.90  1369.39     0  03:03       0.201        3.35       0.003
  HS02004876           JUNCTION     83.02  1096.26     0  03:01       0.394        3.15      -0.018
  HS02004870           JUNCTION     80.86  1016.09     0  03:01       0.381        2.75       0.004
  HS02004862           JUNCTION    106.80   939.04     0  03:01       0.509        2.37       0.008
  HS02004856           JUNCTION     60.78   836.46     0  03:01       0.287        1.87       0.079
  HS02004852           JUNCTION      0.00   781.45     0  03:01           0        1.58       0.004
  HS02004848           JUNCTION    248.78   784.07     0  03:01         1.2        1.73       0.001
  HS02004842           JUNCTION      0.00   536.61     0  03:01           0       0.699       1.946
  HS02004837           JUNCTION    145.05   539.70     0  03:00       0.842        1.25       0.064
  HS02004830           JUNCTION      0.15   396.36     0  03:01     0.00432       0.966       0.175
  HS02004824           JUNCTION    248.59   396.44     0  03:01        1.23        1.99       0.056
  HS02004817           JUNCTION      0.60   292.71     0  03:07      0.0173         1.8       0.912
  HS02004807           JUNCTION    147.50   354.25     0  02:28       0.694        2.43       0.224
  HS02004802           JUNCTION      0.00   372.58     0  03:07           0        2.38       0.178
  HS02004799           JUNCTION    120.17  1731.70     0  03:01       0.567        8.18       0.048
  HS02004792           JUNCTION    740.35  1612.04     0  02:59         3.4        7.61       0.016
  HS02004788           JUNCTION    209.33   885.88     0  02:58        1.01        4.22       0.020
  HS02004785           JUNCTION      0.15   681.84     0  02:58     0.00432         3.2       0.031
  HS02004777           JUNCTION      0.03   681.71     0  02:58    0.000864        3.21       0.186
  HS02004770           JUNCTION    572.39   681.70     0  02:58        2.63        3.21       0.127
  HS02004480           JUNCTION      0.00  1985.68     0  03:01           0        9.37       0.016
  HS02004479           JUNCTION      0.00   254.02     0  03:01           0        1.21       0.078
  HS02004478           JUNCTION      0.00  2018.08     0  02:50           0        11.7       0.003
  YS02001745           JUNCTION   2846.95  2846.95     0  03:01        16.8        16.8       0.071
  YS02001748           JUNCTION      0.04  2847.34     0  03:01      0.0013        16.8       0.133
  YS02001751           JUNCTION      0.01  2353.63     0  03:01    0.000317        16.5       0.147
  YS02001754           JUNCTION      0.26  2354.10     0  03:01     0.00749        16.5       0.146
  YS02001762           JUNCTION      0.00   722.27     0  02:51           0        6.49       0.325
  YS02001765           JUNCTION      0.00   722.20     0  02:51           0        6.48       0.376
  YS02001767           JUNCTION      0.54   722.85     0  02:50      0.0154        6.51       0.551
  YS02001770           JUNCTION   3143.85  3866.03     0  03:01        17.7        23.1       0.134
  YS02001774           JUNCTION      0.00   851.49     0  03:03           0        10.1       0.248
  YS02001779           JUNCTION      0.01   851.37     0  03:03    0.000144        10.1       0.152
  YS02001882           JUNCTION      0.00    42.57     0  01:22           0      0.0359       8.058
  YS02001884           JUNCTION      0.00    70.94     0  01:22           0      0.0748      12.125
  YS02001759           JUNCTION   3085.25  3085.25     0  03:01        17.1        18.1       0.125
  YS02001887           JUNCTION   3361.73  3361.73     0  03:01          18          18       0.059
  YS02001890           JUNCTION      0.00  2052.03     0  02:36           0        15.9       0.069
  YS02001898           JUNCTION      0.00   616.42     0  01:26           0        6.72       0.076
  YS02001901           JUNCTION      0.00   616.94     0  01:26           0        6.72       0.121
  YS02001904           JUNCTION      0.00   617.44     0  01:26           0        6.71       0.106
  YS02001907           JUNCTION      0.00  4597.27     0  03:01           0        33.8       0.079
  YS02001910           JUNCTION      0.00  1992.45     0  03:04           0        20.5       0.076
  YS02001915           JUNCTION   2341.66  3563.36     0  03:01        13.5        24.1       0.031
  YS02001918           JUNCTION      0.00  1539.22     0  03:01           0        10.9       0.025
  YS02001619           JUNCTION   2531.03  2531.03     0  03:01        15.3        15.3       0.080
  YS02001629           JUNCTION      0.00  1138.47     0  03:04           0        8.06       0.350
  YS02001641           JUNCTION      0.00   905.48     0  02:51           0        10.3       0.203
  YS02001644           JUNCTION   2774.48  4526.13     0  03:01        16.5        37.8       0.068
  YS02001652           JUNCTION      0.00  2428.83     0  03:03           0        15.5       0.143
  YS02001655           JUNCTION      0.15  2731.44     0  03:01     0.00443        15.7       0.162
  YS02001920           JUNCTION      2.87  1538.84     0  03:01      0.0827        10.9       0.041
  YS02001923           JUNCTION      0.04  1536.06     0  03:01     0.00109        10.8       0.022
  YS02001926           JUNCTION      0.05  1535.79     0  03:01      0.0015        10.8       0.035
  YS02001929           JUNCTION   1535.61  1535.61     0  03:01        10.8        10.8       0.010
  YS02001658           JUNCTION      0.00  2783.08     0  03:01           0        15.7       0.147
  YS02001661           JUNCTION      0.00  2783.08     0  03:01           0        16.2       0.021
  YS02001664           JUNCTION   2828.43  2828.43     0  03:01        15.7        16.2       0.043
  YS02001622           JUNCTION      0.00  1053.24     0  03:16           0        11.6       0.271
  YS02001633           JUNCTION   2822.93  2822.93     0  03:01        16.9          18       0.177
  YS02001649           JUNCTION      0.00  3236.66     0  03:04           0        24.2       0.152
  YS02001757           JUNCTION      0.00  3761.29     0  03:03           0          29       0.316
  YS02001895           JUNCTION      0.00   615.87     0  01:26           0        6.72       0.103
  YS02001625           JUNCTION      0.00  1505.02     0  03:14           0        15.6       0.259
  YS02163301           JUNCTION      0.00  1138.43     0  02:51           0        8.06       0.296
  YS02163601           JUNCTION      0.11   905.30     0  02:51     0.00317        10.3       0.291
  YS02164001           JUNCTION      0.00   905.41     0  02:51           0        10.3       0.194
  YS02001647           JUNCTION      0.00   846.70     0  02:51           0        11.3       0.250
  YSB1154              JUNCTION    142.18   142.18     0  03:01       0.678       0.678       0.218
  YSB6556              JUNCTION      0.00   142.18     0  03:01           0       0.679       0.198
  YSB1174              JUNCTION    111.81   111.81     0  03:01       0.517       0.518       0.260
  YSB1171              JUNCTION      0.00   253.99     0  03:01           0         1.2       0.544
  YS02006553           JUNCTION      0.00  2088.14     0  03:01           0        13.2       0.130
  YS02006561           JUNCTION      0.00  1156.50     0  01:26           0        17.4       0.007
  YS02006556           JUNCTION      0.00  2088.16     0  03:01           0        13.2       0.094
  YS02006558           JUNCTION   3196.80  3196.80     0  03:01        17.4          24       0.025
  YS02001783           JUNCTION      0.00  1149.90     0  01:28           0        17.4       0.022
  YS02001784           JUNCTION      1.06  1151.12     0  01:28      0.0305        17.5       0.032
  YS02001786           JUNCTION      0.06  1150.97     0  01:28     0.00162        17.5       0.030
  YS02001788           JUNCTION      0.07  1152.48     0  01:28     0.00204        17.5       0.017
  YS02001790           JUNCTION      0.15  1157.86     0  01:27     0.00446        17.5       0.024
  YS02001791           JUNCTION      0.00  1266.02     0  01:27           0        17.5       0.009
  YS02001793           JUNCTION      0.00  1219.70     0  01:27           0        17.5       0.001
  WSC                  OUTFALL       0.00   947.01     0  03:03           0        7.49       0.000
  3                    OUTFALL       0.00  1403.71     0  03:01           0          12       0.000
  4                    OUTFALL       0.00  1095.42     0  03:02           0        6.83       0.000
  5                    OUTFALL       0.00   648.57     0  03:03           0        12.4       0.000
  JK-storage           STORAGE       0.00  1129.28     0  01:27           0        17.6      -0.081
  CC-storage           STORAGE       0.00  2230.36     0  01:38           0        8.65       0.753
  XR-storage           STORAGE    6736.50  6736.50     0  03:01        56.2        56.8      -0.242
  
  
  **********************
  Node Surcharge Summary
  **********************
  
  Surcharging occurs when water rises above the top of the highest conduit.
  ---------------------------------------------------------------------
                                               Max. Height   Min. Depth
                                   Hours       Above Crown    Below Rim
  Node                 Type      Surcharged         Meters       Meters
  ---------------------------------------------------------------------
  WS02004401           JUNCTION        1.73          0.622        1.038
  WS02004402           JUNCTION        1.75          0.580        1.160
  WS02004403           JUNCTION        1.76          0.522        1.508
  WS02004404           JUNCTION        1.86          0.543        2.237
  WS02004406           JUNCTION        1.82          0.414        2.036
  WS02004409           JUNCTION        0.98          0.264        2.096
  WS02004410           JUNCTION        0.89          0.189        2.351
  WS02004411           JUNCTION        0.76          0.123        2.407
  WS02004412           JUNCTION        0.51          0.048        2.262
  WS02004413           JUNCTION        1.32          0.110        2.090
  WS02004405           JUNCTION        1.84          0.501        2.299
  WS02006109           JUNCTION        2.10          1.687        0.133
  WS02006110           JUNCTION        1.93          1.293        0.557
  WS02006111           JUNCTION        1.20          0.654        1.216
  WS02006112           JUNCTION        1.96          1.071        0.609
  WS02006113           JUNCTION        1.22          0.794        1.136
  WS02006115           JUNCTION        1.61          0.673        1.577
  WS02006116           JUNCTION        1.63          0.631        1.659
  WS02006230           JUNCTION        1.72          1.359        0.211
  WS02006231           JUNCTION        1.62          0.969        0.561
  WS02006232           JUNCTION        1.71          0.720        0.760
  WS02006234           JUNCTION        0.93          0.181        1.059
  WS02006253           JUNCTION        0.02          1.572        0.908
  WS02006256           JUNCTION        6.92          2.050        0.000
  WS02006228           JUNCTION        2.09          1.939        0.261
  WS02006229           JUNCTION        0.78          0.711        0.359
  WS02006280           JUNCTION        0.46          0.336        0.444
  WS02006284           JUNCTION        0.32          0.226        0.574
  WS02006287           JUNCTION        0.21          0.209        0.681
  HS02004901           JUNCTION        0.39          0.720        0.000
  HS02004876           JUNCTION        0.01          1.560        0.000
  HS02004842           JUNCTION        0.26          0.233        1.287
  HS02004830           JUNCTION        0.08          0.064        1.266
  HS02004824           JUNCTION        0.14          0.145        1.165
  HS02004817           JUNCTION        1.95          0.709        1.031
  HS02004807           JUNCTION        0.44          0.384        0.836
  HS02004802           JUNCTION        0.51          0.418        0.792
  HS02004799           JUNCTION        1.18          0.745        0.315
  HS02004792           JUNCTION        0.55          0.737        0.163
  HS02004788           JUNCTION        0.21          0.528        0.192
  HS02004785           JUNCTION        0.22          0.621        0.169
  HS02004777           JUNCTION        0.38          0.740        0.040
  HS02004770           JUNCTION        0.37          0.720        0.000
  HS02004480           JUNCTION        0.63          0.513        0.587
  HS02004479           JUNCTION        0.46          0.463        0.587
  HS02004478           JUNCTION        0.10          0.106        0.834
  YS02001745           JUNCTION        2.50          1.350        0.000
  YS02001748           JUNCTION        6.62          1.190        0.000
  YS02001751           JUNCTION        6.64          1.200        0.000
  YS02001754           JUNCTION        6.65          1.150        0.000
  YS02001762           JUNCTION        6.68          1.150        0.000
  YS02001765           JUNCTION        6.67          1.086        0.014
  YS02001767           JUNCTION        6.67          1.017        0.013
  YS02001770           JUNCTION        6.67          0.920        0.000
  YS02001774           JUNCTION        6.68          1.001        0.049
  YS02001779           JUNCTION        6.65          0.680        0.000
  YS02001882           JUNCTION        3.74          0.830        0.000
  YS02001884           JUNCTION        3.76          0.870        0.000
  YS02001759           JUNCTION        6.68          1.210        0.000
  YS02001887           JUNCTION        3.84          0.950        0.000
  YS02001890           JUNCTION        3.87          0.760        0.000
  YS02001898           JUNCTION        3.70          0.546        0.194
  YS02001901           JUNCTION        3.82          0.685        0.185
  YS02001904           JUNCTION        3.79          0.650        0.200
  YS02001907           JUNCTION        4.24          0.950        0.000
  YS02001910           JUNCTION        3.93          1.004        0.096
  YS02001915           JUNCTION        3.74          1.000        0.000
  YS02001918           JUNCTION        3.51          0.810        0.000
  YS02001619           JUNCTION        6.65          0.610        0.000
  YS02001629           JUNCTION        6.64          0.470        0.000
  YS02001641           JUNCTION        6.67          0.968        0.132
  YS02001644           JUNCTION        6.67          0.920        0.000
  YS02001652           JUNCTION        6.65          1.130        0.000
  YS02001655           JUNCTION        6.64          1.200        0.000
  YS02001920           JUNCTION        3.55          1.140        0.000
  YS02001923           JUNCTION        2.13          0.820        0.000
  YS02001926           JUNCTION        2.28          0.900        0.000
  YS02001929           JUNCTION        1.62          0.780        0.000
  YS02001658           JUNCTION        6.62          1.300        0.000
  YS02001661           JUNCTION        2.77          1.364        0.026
  YS02001664           JUNCTION        1.29          1.310        0.000
  YS02001622           JUNCTION        6.65          0.620        0.000
  YS02001633           JUNCTION        6.67          1.060        0.000
  YS02001649           JUNCTION        6.67          1.050        0.000
  YS02001757           JUNCTION        6.69          1.210        0.000
  YS02001895           JUNCTION        3.71          0.573        0.177
  YS02001625           JUNCTION        6.65          0.780        0.000
  YS02163301           JUNCTION        6.66          0.955        0.075
  YS02163601           JUNCTION        6.67          1.079        0.001
  YS02164001           JUNCTION        6.67          0.976        0.124
  YS02001647           JUNCTION        6.65          0.831        0.069
  YSB1154              JUNCTION        1.57          0.730        0.670
  YSB6556              JUNCTION        1.01          0.611        0.489
  YSB1174              JUNCTION        1.33          0.670        0.580
  YSB1171              JUNCTION        1.58          0.720        0.380
  YS02006553           JUNCTION        4.31          1.139        0.051
  YS02006561           JUNCTION        3.59          0.940        0.210
  YS02006556           JUNCTION        4.08          1.292        0.058
  YS02006558           JUNCTION        4.05          1.372        0.028
  YS02001783           JUNCTION        4.12          1.436        0.164
  YS02001784           JUNCTION        4.17          1.456        0.034
  YS02001786           JUNCTION        4.08          1.430        0.000
  YS02001788           JUNCTION        4.01          1.480        0.000
  YS02001790           JUNCTION        5.57          1.157        0.000
  YS02001791           JUNCTION        5.69          0.990        0.930
  YS02001793           JUNCTION        5.89          0.891        1.709
  
  
  *********************
  Node Flooding Summary
  *********************
  
  Flooding refers to all water that overflows a node, whether it ponds or not.
  --------------------------------------------------------------------------
                                                             Total   Maximum
                                 Maximum   Time of Max       Flood    Ponded
                        Hours       Rate    Occurrence      Volume     Depth
  Node                 Flooded       LPS   days hr:min    10^6 ltr    Meters
  --------------------------------------------------------------------------
  WS02006256              6.88    292.86      0  00:00       0.787     0.000
  HS02004901              0.04     39.16      0  03:01       0.003     0.000
  HS02004876              0.01    539.78      0  03:03       0.001     0.000
  HS02004770              0.01      8.28      0  02:50       0.000     0.000
  YS02001745              0.01     86.22      0  01:22       0.000     0.000
  YS02001748              0.36    493.71      0  03:01       0.306     0.000
  YS02001751              0.01     19.77      0  01:22       0.000     0.000
  YS02001754              0.01     23.77      0  01:22       0.000     0.000
  YS02001762              0.04      0.64      0  03:04       0.000     0.000
  YS02001770              2.36   3014.84      0  03:01      11.933     0.000
  YS02001779              5.30    851.27      0  03:03      10.064     0.000
  YS02001882              0.01      0.19      0  03:01       0.000     0.000
  YS02001884              0.01      0.28      0  02:50       0.000     0.000
  YS02001759              0.71    956.30      0  03:01       1.119     0.000
  YS02001887              0.97   1309.67      0  03:01       2.071     0.000
  YS02001890              2.48   1536.22      0  02:51       9.177     0.000
  YS02001907              3.35   4597.03      0  03:01      27.093     0.000
  YS02001915              1.24   1570.89      0  03:01       3.516     0.000
  YS02001918              0.47    317.31      0  03:01       0.253     0.000
  YS02001619              1.58   1477.77      0  03:01       3.653     0.000
  YS02001629              1.82    686.55      0  03:04       2.892     0.000
  YS02001644              6.62   4526.11      0  03:01      37.358     0.000
  YS02001652              0.01      8.88      0  01:23       0.000     0.000
  YS02001655              0.28    302.86      0  03:01       0.178     0.000
  YS02001920              0.01     15.71      0  01:27       0.000     0.000
  YS02001923              0.01     30.75      0  01:27       0.000     0.000
  YS02001926              0.01    242.97      0  01:27       0.000     0.000
  YS02001929              0.01    123.13      0  01:27       0.000     0.000
  YS02001658              0.07    358.60      0  01:22       0.009     0.000
  YS02001664              0.03     45.33      0  03:01       0.002     0.000
  YS02001622              0.01    182.87      0  01:21       0.000     0.000
  YS02001633              0.62    779.88      0  03:01       0.806     0.000
  YS02001649              2.55   2389.84      0  03:03      12.054     0.000
  YS02001757              2.00   2758.78      0  02:47      11.813     0.000
  YS02001625              4.36   1505.02      0  03:21      14.344     0.000
  YS02001786              0.01     57.94      0  01:29       0.000     0.000
  YS02001788              0.01    154.50      0  01:29       0.000     0.000
  YS02001790              0.01    177.62      0  01:28       0.000     0.000
  JK-storage              5.24    810.22      0  03:01      10.092     0.000
  XR-storage              6.28   6356.47      0  03:01      45.036     0.000
  
  
  **********************
  Storage Volume Summary
  **********************
  
  --------------------------------------------------------------------------------------------------
                         Average     Avg  Evap Exfil       Maximum     Max    Time of Max    Maximum
                          Volume    Pcnt  Pcnt  Pcnt        Volume    Pcnt     Occurrence    Outflow
  Storage Unit           1000 m3    Full  Loss  Loss       1000 m3    Full    days hr:min        LPS
  --------------------------------------------------------------------------------------------------
  JK-storage               0.265      91     0     0         0.291     100       0  01:29     333.63
  CC-storage               3.552      23     0     0         4.104      26       0  02:17     200.00
  XR-storage               0.867      94     0     0         0.926     100       0  01:42     380.00
  
  
  ***********************
  Outfall Loading Summary
  ***********************
  
  ---------------------------------------------------------------------------------------------------------------------------------
                         Flow       Avg       Max       Total         Total         Total         Total         Total         Total
                         Freq      Flow      Flow      Volume           COD            SS            TN            TP         NH4-N
  Outfall Node           Pcnt       LPS       LPS    10^6 ltr            kg            kg            kg            kg            kg
  ---------------------------------------------------------------------------------------------------------------------------------
  WSC                   99.99    297.70    947.01       7.490       987.049      1797.101        37.426         3.698        20.775
  3                     99.99    477.60   1403.71      12.043      1241.207      2289.991        33.156         2.610        16.866
  4                     99.99    272.71   1095.42       6.833       841.869      1651.178        19.223         1.417         9.557
  5                    100.00    440.41    648.57      12.443      1241.713      2153.054        70.979         7.897        41.785
  ---------------------------------------------------------------------------------------------------------------------------------
  System                99.99   1488.42   4070.74      38.809      4311.839      7891.324       160.784        15.624        88.983
  
  
  ********************
  Link Flow Summary
  ********************
  
  -----------------------------------------------------------------------------
                                 Maximum  Time of Max   Maximum    Max/    Max/
                                  |Flow|   Occurrence   |Veloc|    Full    Full
  Link                 Type          LPS  days hr:min     m/sec    Flow   Depth
  -----------------------------------------------------------------------------
  WS02003066WSF200     CONDUIT   1191.05     0  03:01      3.52    0.20    0.34
  WS02006287WS02006284 CONDUIT   1985.85     0  03:01      3.06    0.92    1.00
  WS02006284WS02006280 CONDUIT   1985.98     0  03:01      3.31    0.83    1.00
  WS02006280WS02006229 CONDUIT   1986.30     0  03:01      5.13    0.42    1.00
  WS02006229WS02006228 CONDUIT   1086.05     0  03:01      2.16    3.60    1.00
  WS02006256WS02006235 CONDUIT    289.81     0  03:24      4.46    3.07    1.00
  WS02006253WS02006251 CONDUIT   1187.74     0  03:02      3.12    3.56    0.96
  WS02006252WS02006251 CONDUIT    202.03     0  01:17      1.98    0.74    0.76
  WS02006251WS02006249 CONDUIT    270.56     0  03:01      0.98    0.78    0.68
  WS02006249WS02006248 CONDUIT    268.66     0  03:01      1.04    1.47    0.64
  WS02006248WS02006247 CONDUIT    267.27     0  03:01      1.00    0.58    0.65
  WS02006247WS02006245 CONDUIT    265.81     0  03:01      0.96    2.11    0.67
  WS02006245WS02006243 CONDUIT    264.56     0  03:02      0.98    0.78    0.66
  WS02006243WS02006242 CONDUIT    263.84     0  03:02      0.87    0.56    0.74
  WS02006242WS02006240 CONDUIT    264.16     0  03:02      0.82    1.05    0.78
  WS02006240WS02006239 CONDUIT    265.54     0  03:03      0.88    0.84    0.73
  WS02006239WS02006238 CONDUIT    266.78     0  03:03      0.81    0.85    0.80
  WS02006238WS02006235 CONDUIT    267.04     0  03:03      1.14    0.60    0.82
  WS02006235WS02006234 CONDUIT    910.73     0  03:01      2.45    9.61    0.92
  WS02006234WS02006232 CONDUIT    910.72     0  03:01      2.37    1.84    1.00
  WS02006232WS02006231 CONDUIT    910.72     0  03:01      2.37    1.91    1.00
  WS02006231WS02006230 CONDUIT    910.71     0  03:01      2.37   13.81    1.00
  WS02006230WS02006229 CONDUIT    900.42     0  03:01      2.34   20.04    1.00
  WS02006228WS02006109 CONDUIT   1086.07     0  03:01      2.16    4.75    1.00
  WS02006116WS02004401 CONDUIT   1192.01     0  03:01      1.52    1.64    1.00
  WS02006115WS02006116 CONDUIT   1192.00     0  03:01      1.52    1.53    1.00
  WS02006113WS02006111 CONDUIT   1087.64     0  03:01      2.58    1.30    1.00
  WS02006112WS02006115 CONDUIT   1191.98     0  03:01      1.52    0.70    1.00
  WS02006111WS02006112 CONDUIT   1087.70     0  03:01      2.16    0.52    1.00
  WS02006110WS02006113 CONDUIT   1087.41     0  03:01      2.16    0.99    1.00
  WS02006109WS02006110 CONDUIT   1087.50     0  03:01      2.16    2.09    1.00
  WS02004411WS02004412 CONDUIT   1190.61     0  03:01      1.52    1.69    1.00
  WS02004401WS02004402 CONDUIT   1192.03     0  03:01      1.52    1.43    1.00
  WS02004413WS02003067 CONDUIT   1190.74     0  03:01      1.88    0.51    0.75
  WS02004412WS02004413 CONDUIT   1190.71     0  03:01      1.52    0.80    1.00
  WS02004410WS02004411 CONDUIT   1190.56     0  03:01      1.52    1.63    1.00
  WS02004409WS02004410 CONDUIT   1190.62     0  03:01      1.52    1.54    1.00
  WS02004407WS02004409 CONDUIT   1190.66     0  03:01      1.70    0.42    0.87
  WS02004406WS02004407 CONDUIT   1192.29     0  03:01      1.67    0.53    0.87
  WS02004405WS02004406 CONDUIT   1192.37     0  03:01      1.52    2.35    1.00
  WS02004404WS02004405 CONDUIT   1192.23     0  03:01      1.52   11.68    1.00
  WS02004403WS02004404 CONDUIT   1192.08     0  03:01      1.52    0.86    1.00
  WS02004402WS02004403 CONDUIT   1192.03     0  03:01      1.52    1.71    1.00
  WS02004139WS02001211 CONDUIT    268.31     0  03:03      0.91    0.34    0.31
  WS02004138WS02004139 CONDUIT    397.13     0  00:00      3.67    0.08    0.24
  WS02003067WS02003066 CONDUIT   1190.96     0  03:01      1.94    0.38    0.53
  WS02001213WS02003059 CONDUIT    261.42     0  03:02      0.44    0.43    0.70
  WS02001212WS02001213 CONDUIT    261.27     0  03:02      1.18    0.40    0.33
  WS02001211WS02001212 CONDUIT    261.14     0  03:03      0.88    0.20    0.40
  WS02003072WS02003073 CONDUIT    945.44     0  03:03      1.73    2.04    0.49
  WS02003069WS02003072 CONDUIT    945.65     0  03:02      1.63    0.46    0.51
  WS02003060WS02003069 CONDUIT    945.65     0  03:02      1.87    0.37    0.46
  WS02003059WS02003060 CONDUIT    261.74     0  03:02      0.82    0.17    0.64
  HS02004901HS02004770 CONDUIT    124.83     0  02:58      0.18    0.47    1.00
  HS02004876HS02004881 CONDUIT   1344.31     0  03:03      3.23   14.30    0.63
  HS02004870HS02004876 CONDUIT   1017.92     0  03:01      2.14    0.68    0.83
  HS02004842HS02004848 CONDUIT    536.60     0  03:01      0.86    0.31    0.89
  HS02004837HS02004842 CONDUIT    536.61     0  03:01      0.81    0.32    0.95
  HS02004830HS02004837 CONDUIT    396.16     0  03:01      0.69    0.39    0.95
  HS02004824HS02004830 CONDUIT    396.21     0  03:01      0.67    0.52    1.00
  HS02004817HS02004824 CONDUIT    292.11     0  03:07      0.57    0.13    1.00
  HS02004770HS02004777 CONDUIT    681.68     0  02:58      0.97    1.25    1.00
  HS02004799HS02004480 CONDUIT   1731.71     0  03:01      2.47    2.19    1.00
  HS02004792HS02004799 CONDUIT   1612.01     0  02:59      2.30    0.99    1.00
  HS02004788HS02004792 CONDUIT    885.87     0  02:58      1.52    0.59    1.00
  HS02004785HS02004788 CONDUIT    681.81     0  02:58      1.44    5.14    1.00
  HS02004777HS02004785 CONDUIT    681.69     0  02:58      0.97    0.84    1.00
  HS02004480HS02004478 CONDUIT   1985.68     0  03:01      2.84    8.36    1.00
  HS02004479HS02004480 CONDUIT    254.16     0  03:01      0.53    0.25    1.00
  HS02004862HS02004870 CONDUIT    941.46     0  03:01      1.93    1.02    0.70
  HS02004848HS02004852 CONDUIT    781.45     0  03:01      1.40    0.88    0.80
  HS02004856HS02004862 CONDUIT    837.36     0  03:01      1.62    0.83    0.74
  HS02004852HS02004856 CONDUIT    780.66     0  03:01      1.36    0.89    0.82
  HS02004802HS02004478 CONDUIT    400.07     0  03:07      0.75    0.35    1.00
  HS02004478WS02006287 CONDUIT   1985.82     0  03:01      2.86    0.56    1.00
  HS02004817HS02004807 CONDUIT    292.64     0  03:07      0.47    0.17    1.00
  HS02004807HS02004802 CONDUIT    372.58     0  03:07      0.65    0.71    1.00
  YS02001759YS02001757 CONDUIT   1407.29     0  03:08      1.79    1.00    1.00
  YS02001762YS02001759 CONDUIT    722.27     0  02:51      0.92    0.83    1.00
  YS02001765YS02001762 CONDUIT    722.20     0  02:51      0.92    0.68    1.00
  YS02001770YS02001767 CONDUIT    722.82     0  02:51      0.92    2.86    1.00
  YS02001774YS02001770 CONDUIT    851.49     0  03:03      1.08    0.54    1.00
  YS02001779YS02001774 CONDUIT    851.36     0  03:03      1.08    0.43    1.00
  YS02001649YS02001757 CONDUIT    818.11     0  01:23      1.04    0.50    1.00
  YS02001767YS02001765 CONDUIT    722.32     0  02:50      0.92    0.91    1.00
  YS02006561YS02001783 CONDUIT   1149.90     0  01:28      2.29    0.60    1.00
  YS02001783YS02001784 CONDUIT   1150.06     0  01:28      2.29    1.59    1.00
  YS02001784YS02001785 CONDUIT   1150.91     0  01:28      2.29    2.68    1.00
  YS02001788YS02001790 CONDUIT   1157.71     0  01:27      2.70    0.85    1.00
  YS02001790YS02001791 CONDUIT   1266.02     0  01:27      3.41    1.38    1.00
  YS02001791YS02001793 CONDUIT   1219.70     0  01:27      6.50    0.52    1.00
  YS02001910YS02001907 CONDUIT   1992.45     0  03:04      2.54    1.12    1.00
  YS02001786YS02001788 CONDUIT   1152.41     0  01:28      2.46    2.22    1.00
  YS02001915YS02001910 CONDUIT   1992.45     0  03:04      2.54    0.99    1.00
  YS02001918YS02001915 CONDUIT   1221.69     0  03:13      1.56    0.67    1.00
  YS02001923YS02001920 CONDUIT   1535.97     0  03:01      1.96    0.69    1.00
  YS02001926YS02001923 CONDUIT   1536.02     0  03:01      1.96    2.19    1.00
  YS02001929YS02001926 CONDUIT   1535.73     0  03:01      1.96    0.73    1.00
  YS02001920YS02001918 CONDUIT   1539.22     0  03:01      1.96    1.49    1.00
  YS02001629YS02163301 CONDUIT   1138.47     0  03:04      1.45    1.40    1.00
  YS02001619YS02001622 CONDUIT   1053.24     0  03:16      1.34    1.55    1.00
  YS02001622YS02001625 CONDUIT   1053.24     0  03:16      1.34    0.56    1.00
  YS02001625YS02001629 CONDUIT    451.78     0  03:16      0.58    0.21    1.00
  YS02163301YS02001633 CONDUIT   1138.43     0  02:51      1.45    1.07    1.00
  YS02163601YS02164001 CONDUIT    905.41     0  02:51      1.15    0.80    1.00
  YS02164001YS02001641 CONDUIT    905.48     0  02:51      1.15    1.24    1.00
  YS02001641YS02001644 CONDUIT    905.48     0  02:51      1.15    2.93    1.00
  YS02001647YS02001649 CONDUIT    846.70     0  02:51      1.08    0.45    1.00
  YS02006553YS02006556 CONDUIT   2088.14     0  03:01      2.66    1.79    1.00
  YS02006556YS02006558 CONDUIT   2088.16     0  03:01      2.66    1.65    1.00
  YSB6556YSB1171       CONDUIT    142.20     0  03:01      0.37    0.15    1.00
  YS02001907YS02006553 CONDUIT   2088.43     0  03:01      2.32    2.46    1.00
  YS02006558YS02006561 CONDUIT   1156.50     0  01:26      4.09    2.56    1.00
  YS02001633YS02163601 CONDUIT    905.19     0  02:51      1.15    0.95    1.00
  YS02001644YS02001647 CONDUIT    846.70     0  02:50      1.08    0.50    1.00
  YS02001745YS02001748 CONDUIT   2847.29     0  03:01      3.63    1.10    1.00
  YS02001748YS02001751 CONDUIT   2353.62     0  03:01      3.00    1.19    1.00
  YS02001751YS02001754 CONDUIT   2353.84     0  03:01      3.00    1.13    1.00
  YS02001754YS02001757 CONDUIT   2354.00     0  03:03      3.00    0.95    1.00
  YS02001882YS02001884 CONDUIT     42.57     0  01:22      0.28    0.05    1.00
  YS02001884YS02001887 CONDUIT     70.94     0  01:22      0.21    0.09    1.00
  YS02001890YS02001895 CONDUIT    615.87     0  01:26      0.78    0.29    1.00
  YS02001895YS02001898 CONDUIT    616.42     0  01:26      0.78    1.07    1.00
  YS02001898YS02001901 CONDUIT    616.94     0  01:26      0.79    0.40    1.00
  YS02001901YS02001904 CONDUIT    617.44     0  01:26      0.79    0.96    1.00
  YS02001904YS02001907 CONDUIT    617.57     0  01:26      0.79    0.22    1.00
  YS02001887YS02001890 CONDUIT   2052.03     0  02:36      2.61    3.51    1.00
  YS02001652YS02001649 CONDUIT   2428.83     0  03:04      3.09    1.20    1.00
  YS02001655YS02001652 CONDUIT   2428.83     0  03:03      3.09    1.18    1.00
  YS02001658YS02001655 CONDUIT   2731.29     0  03:01      3.48    1.16    1.00
  YS02001661YS02001658 CONDUIT   2783.08     0  03:01      3.54    1.09    1.00
  YS02001664YS02001661 CONDUIT   2783.08     0  03:01      3.54    0.87    1.00
  YSB1154YSB6556       CONDUIT    142.18     0  03:01      0.37    0.26    1.00
  YSB1174YSB1171       CONDUIT    111.82     0  03:01      0.29    0.17    1.00
  YSB1171HS02004479    CONDUIT    254.02     0  03:01      0.54    0.17    1.00
  HS02004881HS02006253 CONDUIT   1355.56     0  03:04      3.24    0.26    0.66
  YS02001793JiankangQianchi CONDUIT   1129.28     0  01:27     13.01    0.09    1.00
  YS02001757CaochengTiaoxuchi CONDUIT   2230.36     0  01:38      3.86    0.98    1.00
  WSF200WS02003060     CONDUIT   1191.17     0  03:01      2.83    0.26    0.40
  1                    CONDUIT    947.01     0  03:03      3.28    0.33    0.40
  CC-Pump-1            PUMP       200.00     0  01:17              1.00
  CC-Pump-2            PUMP         0.00     0  00:00              0.00
  JK-Pump-1            PUMP       300.00     0  00:00              1.00
  JK-Pump-2            PUMP         0.00     0  00:00              0.00
  XR-Pump-1            PUMP        95.00     0  00:00              1.00
  XR-Pump-2            PUMP        95.00     0  00:00              1.00
  XR-Pump-3            PUMP        95.00     0  00:00              1.00
  XR-Pump-4            PUMP        95.00     0  00:00              1.00
  3                    WEIR      1095.42     0  03:02                      0.48
  5                    WEIR      1403.71     0  03:01                      0.56
  6                    WEIR       648.57     0  03:03                      0.34
  
  
  ***************************
  Flow Classification Summary
  ***************************
  
  -------------------------------------------------------------------------------------
                      Adjusted    ---------- Fraction of Time in Flow Class ---------- 
                       /Actual         Up    Down  Sub   Sup   Up    Down  Norm  Inlet 
  Conduit               Length    Dry  Dry   Dry   Crit  Crit  Crit  Crit  Ltd   Ctrl  
  -------------------------------------------------------------------------------------
  WS02003066WSF200        1.00   0.05  0.00  0.00  0.00  0.95  0.00  0.00  0.59  0.00
  WS02006287WS02006284    1.00   0.02  0.01  0.00  0.57  0.27  0.00  0.13  0.61  0.00
  WS02006284WS02006280    1.00   0.02  0.00  0.00  0.08  0.02  0.00  0.87  0.00  0.00
  WS02006280WS02006229    1.00   0.02  0.00  0.00  0.12  0.06  0.00  0.79  0.00  0.00
  WS02006229WS02006228    1.00   0.00  0.00  0.00  1.00  0.00  0.00  0.00  0.00  0.00
  WS02006256WS02006235    1.00   0.00  0.00  0.00  0.30  0.70  0.00  0.00  0.01  0.00
  WS02006253WS02006251    1.00   0.01  0.01  0.00  0.65  0.00  0.33  0.00  0.00  0.00
  WS02006252WS02006251    1.00   0.03  0.00  0.00  0.00  0.00  0.97  0.00  0.00  0.00
  WS02006251WS02006249    1.00   0.00  0.00  0.00  1.00  0.00  0.00  0.00  0.66  0.00
  WS02006249WS02006248    1.00   0.00  0.02  0.00  0.32  0.00  0.65  0.00  0.00  0.00
  WS02006248WS02006247    1.00   0.02  0.00  0.00  0.97  0.00  0.00  0.01  0.57  0.00
  WS02006247WS02006245    1.00   0.03  0.00  0.00  0.96  0.00  0.00  0.01  0.00  0.00
  WS02006245WS02006243    1.00   0.03  0.00  0.00  0.96  0.00  0.00  0.02  0.00  0.00
  WS02006243WS02006242    1.00   0.00  0.02  0.00  0.97  0.00  0.00  0.00  0.62  0.00
  WS02006242WS02006240    1.00   0.00  0.00  0.00  0.99  0.00  0.01  0.00  0.01  0.00
  WS02006240WS02006239    1.00   0.00  0.00  0.00  0.97  0.00  0.00  0.03  0.00  0.00
  WS02006239WS02006238    1.00   0.00  0.00  0.00  1.00  0.00  0.00  0.00  0.03  0.00
  WS02006238WS02006235    1.00   0.00  0.00  0.00  1.00  0.00  0.00  0.00  0.00  0.00
  WS02006235WS02006234    1.00   0.02  0.00  0.00  0.69  0.00  0.00  0.29  0.00  0.00
  WS02006234WS02006232    1.00   0.00  0.00  0.00  1.00  0.00  0.00  0.00  0.07  0.00
  WS02006232WS02006231    1.00   0.00  0.00  0.00  1.00  0.00  0.00  0.00  0.00  0.00
  WS02006231WS02006230    1.00   0.00  0.00  0.00  0.38  0.00  0.62  0.00  0.00  0.00
  WS02006230WS02006229    1.00   0.00  0.00  0.00  0.99  0.00  0.00  0.01  0.01  0.00
  WS02006228WS02006109    1.00   0.00  0.00  0.00  1.00  0.00  0.00  0.00  0.00  0.00
  WS02006116WS02004401    1.00   0.01  0.00  0.00  0.99  0.00  0.00  0.00  0.00  0.00
  WS02006115WS02006116    1.00   0.01  0.00  0.00  0.97  0.00  0.00  0.02  0.00  0.00
  WS02006113WS02006111    1.00   0.01  0.00  0.00  0.24  0.75  0.00  0.00  0.02  0.00
  WS02006112WS02006115    1.00   0.01  0.01  0.00  0.98  0.00  0.00  0.00  0.00  0.00
  WS02006111WS02006112    1.00   0.01  0.00  0.00  0.99  0.00  0.00  0.00  0.72  0.00
  WS02006110WS02006113    1.00   0.00  0.00  0.00  0.99  0.00  0.00  0.00  0.00  0.00
  WS02006109WS02006110    1.00   0.00  0.00  0.00  0.99  0.00  0.00  0.00  0.00  0.00
  WS02004411WS02004412    1.00   0.04  0.00  0.00  0.96  0.00  0.00  0.00  0.00  0.00
  WS02004401WS02004402    1.00   0.01  0.00  0.00  0.99  0.00  0.00  0.00  0.04  0.00
  WS02004413WS02003067    1.00   0.04  0.01  0.00  0.00  0.00  0.95  0.00  0.00  0.00
  WS02004412WS02004413    1.00   0.04  0.00  0.00  0.96  0.00  0.00  0.00  0.00  0.00
  WS02004410WS02004411    1.00   0.03  0.00  0.00  0.96  0.00  0.00  0.00  0.00  0.00
  WS02004409WS02004410    1.00   0.03  0.00  0.00  0.96  0.00  0.00  0.00  0.00  0.00
  WS02004407WS02004409    1.00   0.03  0.00  0.00  0.95  0.01  0.00  0.00  0.71  0.00
  WS02004406WS02004407    1.00   0.00  0.03  0.00  0.97  0.00  0.00  0.00  0.00  0.00
  WS02004405WS02004406    1.00   0.00  0.00  0.00  1.00  0.00  0.00  0.00  0.04  0.00
  WS02004404WS02004405    1.00   0.00  0.00  0.00  1.00  0.00  0.00  0.00  0.00  0.00
  WS02004403WS02004404    1.00   0.00  0.02  0.00  0.98  0.00  0.00  0.00  0.04  0.00
  WS02004402WS02004403    1.00   0.01  0.00  0.00  0.99  0.00  0.00  0.00  0.00  0.00
  WS02004139WS02001211    1.00   0.00  0.00  0.00  1.00  0.00  0.00  0.00  0.00  0.00
  WS02004138WS02004139    1.00   0.00  0.00  0.00  0.00  0.36  0.00  0.64  0.31  0.00
  WS02003067WS02003066    1.00   0.05  0.00  0.00  0.95  0.00  0.00  0.00  0.00  0.00
  WS02001213WS02003059    1.00   0.00  0.00  0.00  1.00  0.00  0.00  0.00  0.00  0.00
  WS02001212WS02001213    1.00   0.00  0.00  0.00  0.43  0.00  0.57  0.00  0.00  0.00
  WS02001211WS02001212    1.00   0.00  0.00  0.00  1.00  0.00  0.00  0.00  0.26  0.00
  WS02003072WS02003073    1.00   0.00  0.00  0.00  0.00  0.00  0.00  1.00  0.00  0.00
  WS02003069WS02003072    1.00   0.00  0.00  0.00  1.00  0.00  0.00  0.00  0.73  0.00
  WS02003060WS02003069    1.00   0.00  0.00  0.00  0.99  0.01  0.00  0.00  0.72  0.00
  WS02003059WS02003060    1.00   0.00  0.00  0.00  1.00  0.00  0.00  0.00  0.05  0.00
  HS02004901HS02004770    1.00   0.02  0.00  0.00  0.98  0.00  0.00  0.00  0.00  0.00
  HS02004876HS02004881    1.00   0.01  0.00  0.00  0.67  0.33  0.00  0.00  0.00  0.00
  HS02004870HS02004876    1.00   0.00  0.00  0.00  1.00  0.00  0.00  0.00  0.83  0.00
  HS02004842HS02004848    1.00   0.00  0.02  0.00  0.98  0.00  0.00  0.00  0.50  0.00
  HS02004837HS02004842    1.00   0.00  0.00  0.00  1.00  0.00  0.00  0.00  0.11  0.00
  HS02004830HS02004837    1.00   0.00  0.00  0.00  1.00  0.00  0.00  0.00  0.80  0.00
  HS02004824HS02004830    1.00   0.00  0.00  0.00  1.00  0.00  0.00  0.00  0.01  0.00
  HS02004817HS02004824    1.00   0.00  0.00  0.00  1.00  0.00  0.00  0.00  0.74  0.00
  HS02004770HS02004777    1.00   0.00  0.02  0.00  0.98  0.00  0.00  0.00  0.00  0.00
  HS02004799HS02004480    1.00   0.00  0.01  0.00  0.98  0.00  0.02  0.00  0.00  0.00
  HS02004792HS02004799    1.00   0.00  0.00  0.00  1.00  0.00  0.00  0.00  0.76  0.00
  HS02004788HS02004792    1.00   0.00  0.00  0.00  1.00  0.00  0.00  0.00  0.91  0.00
  HS02004785HS02004788    1.00   0.00  0.00  0.00  1.00  0.00  0.00  0.00  0.00  0.00
  HS02004777HS02004785    1.00   0.00  0.00  0.00  1.00  0.00  0.00  0.00  0.10  0.00
  HS02004480HS02004478    1.00   0.02  0.00  0.00  0.62  0.00  0.00  0.36  0.00  0.00
  HS02004479HS02004480    1.00   0.01  0.00  0.00  0.99  0.00  0.00  0.00  0.09  0.00
  HS02004862HS02004870    1.00   0.00  0.00  0.00  1.00  0.00  0.00  0.00  0.01  0.00
  HS02004848HS02004852    1.00   0.02  0.00  0.00  0.98  0.00  0.00  0.00  0.69  0.00
  HS02004856HS02004862    1.00   0.00  0.02  0.00  0.98  0.00  0.00  0.00  0.72  0.00
  HS02004852HS02004856    1.00   0.02  0.00  0.00  0.98  0.00  0.00  0.00  0.60  0.00
  HS02004802HS02004478    1.00   0.02  0.00  0.00  0.98  0.00  0.00  0.00  0.01  0.00
  HS02004478WS02006287    1.00   0.02  0.00  0.00  0.67  0.31  0.00  0.00  0.55  0.00
  HS02004817HS02004807    1.00   0.00  0.02  0.00  0.98  0.00  0.00  0.00  0.01  0.00
  HS02004807HS02004802    1.00   0.02  0.00  0.00  0.98  0.00  0.00  0.00  0.00  0.00
  YS02001759YS02001757    1.00   0.00  0.00  0.00  1.00  0.00  0.00  0.00  0.14  0.00
  YS02001762YS02001759    1.00   0.00  0.00  0.00  1.00  0.00  0.00  0.00  0.01  0.00
  YS02001765YS02001762    1.00   0.00  0.00  0.00  1.00  0.00  0.00  0.00  0.12  0.00
  YS02001770YS02001767    1.00   0.00  0.00  0.00  1.00  0.00  0.00  0.00  0.00  0.00
  YS02001774YS02001770    1.00   0.00  0.02  0.00  0.98  0.00  0.00  0.00  0.01  0.00
  YS02001779YS02001774    1.00   0.00  0.00  0.00  1.00  0.00  0.00  0.00  0.14  0.00
  YS02001649YS02001757    1.00   0.00  0.00  0.00  1.00  0.00  0.00  0.00  0.14  0.00
  YS02001767YS02001765    1.00   0.00  0.00  0.00  1.00  0.00  0.00  0.00  0.00  0.00
  YS02006561YS02001783    1.00   0.03  0.00  0.00  0.82  0.15  0.00  0.00  0.31  0.00
  YS02001783YS02001784    1.00   0.00  0.03  0.00  0.97  0.00  0.00  0.00  0.00  0.00
  YS02001784YS02001785    1.00   0.00  0.00  0.00  1.00  0.00  0.00  0.00  0.13  0.00
  YS02001788YS02001790    1.00   0.00  0.00  0.00  0.87  0.13  0.00  0.00  0.19  0.00
  YS02001790YS02001791    1.00   0.00  0.00  0.00  0.85  0.15  0.00  0.00  0.09  0.00
  YS02001791YS02001793    1.00   0.00  0.00  0.00  0.87  0.13  0.00  0.00  0.02  0.00
  YS02001910YS02001907    1.00   0.00  0.00  0.00  0.99  0.00  0.00  0.01  0.11  0.00
  YS02001786YS02001788    1.00   0.00  0.00  0.00  0.86  0.14  0.00  0.00  0.00  0.00
  YS02001915YS02001910    1.00   0.00  0.00  0.00  1.00  0.00  0.00  0.00  0.11  0.00
  YS02001918YS02001915    1.00   0.00  0.00  0.00  0.99  0.00  0.00  0.00  0.35  0.00
  YS02001923YS02001920    1.00   0.00  0.00  0.00  1.00  0.00  0.00  0.00  0.50  0.00
  YS02001926YS02001923    1.00   0.00  0.01  0.00  0.54  0.00  0.45  0.00  0.00  0.00
  YS02001929YS02001926    1.00   0.00  0.02  0.00  0.98  0.00  0.00  0.00  0.42  0.00
  YS02001920YS02001918    1.00   0.00  0.00  0.00  1.00  0.00  0.00  0.00  0.00  0.00
  YS02001629YS02163301    1.00   0.02  0.00  0.00  0.98  0.00  0.00  0.00  0.00  0.00
  YS02001619YS02001622    1.00   0.02  0.00  0.00  0.98  0.00  0.00  0.00  0.00  0.00
  YS02001622YS02001625    1.00   0.02  0.00  0.00  0.98  0.00  0.00  0.00  0.01  0.00
  YS02001625YS02001629    1.00   0.02  0.00  0.00  0.97  0.00  0.01  0.00  0.00  0.00
  YS02163301YS02001633    1.00   0.00  0.02  0.00  0.98  0.00  0.00  0.00  0.00  0.00
  YS02163601YS02164001    1.00   0.00  0.02  0.00  0.98  0.00  0.00  0.00  0.00  0.00
  YS02164001YS02001641    1.00   0.00  0.01  0.00  0.98  0.00  0.00  0.00  0.05  0.00
  YS02001641YS02001644    1.00   0.00  0.00  0.00  1.00  0.00  0.00  0.00  0.00  0.00
  YS02001647YS02001649    1.00   0.00  0.02  0.00  0.97  0.00  0.00  0.00  0.01  0.00
  YS02006553YS02006556    1.00   0.00  0.00  0.00  1.00  0.00  0.00  0.00  0.03  0.00
  YS02006556YS02006558    1.00   0.00  0.00  0.00  1.00  0.00  0.00  0.00  0.00  0.00
[...]
  YS02001790YS02001791        5.57      5.57      5.69      3.49         3.40
  YS02001791YS02001793        5.69      5.69      5.96      0.01         0.01
  YS02001910YS02001907        3.93      3.93      4.24      1.43         1.43
  YS02001786YS02001788        4.01      4.08      4.01      4.38         4.01
  YS02001915YS02001910        3.74      3.74      3.93      0.01         0.01
  YS02001918YS02001915        3.51      3.51      3.74      0.01         0.01
  YS02001923YS02001920        3.37      3.37      3.55      0.01         0.01
  YS02001926YS02001923        2.13      2.13      2.28      1.57         0.01
  YS02001929YS02001926        1.62      1.62      2.28      0.01         0.01
  YS02001920YS02001918        3.51      3.51      3.55      0.80         0.01
  YS02001629YS02163301        6.66      6.66      6.66      1.12         0.01
  YS02001619YS02001622        6.65      6.65      6.65      2.24         2.25
  YS02001622YS02001625        6.65      6.65      6.65      0.01         0.01
  YS02001625YS02001629        6.64      6.64      6.65      0.01         0.01
  YS02163301YS02001633        6.66      6.66      6.67      0.72         0.01
  YS02163601YS02164001        6.67      6.67      6.67      0.01         0.01
  YS02164001YS02001641        6.67      6.67      6.67      1.09         1.11
  YS02001641YS02001644        6.67      6.67      6.67      4.51         4.50
  YS02001647YS02001649        6.65      6.65      6.67      0.01         0.01
  YS02006553YS02006556        4.08      4.08      4.31      0.72         0.73
  YS02006556YS02006558        4.13      4.13      4.34      0.63         0.01
  YSB6556YSB1171              1.01      1.01      2.00      0.01         0.01
  YS02001907YS02006553        4.76      4.76      4.96      1.03         1.03
  YS02006558YS02006561        3.78      4.05      3.78      4.61         3.78
  YS02001633YS02163601        6.67      6.67      6.67      0.01         0.01
  YS02001644YS02001647        6.65      6.65      6.67      0.01         0.01
  YS02001745YS02001748        2.50      2.50      6.62      0.17         0.17
  YS02001748YS02001751        6.63      6.63      6.64      0.68         0.68
  YS02001751YS02001754        6.64      6.64      6.65      0.60         0.60
  YS02001754YS02001757        6.65      6.65      6.69      0.01         0.01
  YS02001882YS02001884        3.74      3.74      3.76      0.01         0.01
  YS02001884YS02001887        3.82      3.82      3.84      0.01         0.01
  YS02001890YS02001895        3.71      3.71      3.93      0.01         0.01
  YS02001895YS02001898        3.70      3.70      3.71      0.03         0.01
  YS02001898YS02001901        3.72      3.72      3.82      0.01         0.01
  YS02001901YS02001904        3.79      3.79      3.82      0.01         0.01
  YS02001904YS02001907        3.79      3.79      4.32      0.01         0.01
  YS02001887YS02001890        3.87      3.87      3.90      2.42         0.01
  YS02001652YS02001649        6.65      6.65      6.67      0.62         0.62
  YS02001655YS02001652        6.64      6.64      6.65      0.58         0.58
  YS02001658YS02001655        6.62      6.62      6.64      0.33         0.33
  YS02001661YS02001658        2.76      2.76      6.62      0.18         0.20
  YS02001664YS02001661        1.29      1.29      4.02      0.01         0.01
  YSB1154YSB6556              1.01      1.01      1.57      0.01         0.01
  YSB1174YSB1171              1.33      1.33      1.90      0.01         0.01
  YSB1171HS02004479           0.46      0.46      1.58      0.01         0.01
  HS02004881HS02006253        0.01      0.01      0.02      0.01         0.01
  YS02001793JiankangQianchi        5.89      5.89      6.73      0.01         0.01
  YS02001757CaochengTiaoxuchi        6.21      6.21      6.69      0.01         0.01
  
  
  ***************
  Pumping Summary
  ***************
  
  ---------------------------------------------------------------------------------------------------------
                                                  Min       Avg       Max     Total     Power    % Time Off
                        Percent   Number of      Flow      Flow      Flow    Volume     Usage    Pump Curve
  Pump                 Utilized   Start-Ups       LPS       LPS       LPS  10^6 ltr     Kw-hr    Low   High
  ---------------------------------------------------------------------------------------------------------
  CC-Pump-1               84.24           1      0.00    199.64    200.00     4.838      3.62    0.0    3.6
  CC-Pump-2                0.00           0      0.00      0.00      0.00     0.000      0.00    0.0    0.0
  JK-Pump-1              100.00           1      0.00    292.42    300.00     7.457     63.97    0.0    0.0
  JK-Pump-2                0.00           0      0.00      0.00      0.00     0.000      0.00    0.0    0.0
  XR-Pump-1              100.00           1      0.00     95.00     95.00     2.736     21.85    0.0    0.0
  XR-Pump-2              100.00           1      0.00     95.00     95.00     2.736     21.85    0.0    0.0
  XR-Pump-3              100.00           1      0.00     95.00     95.00     2.736     21.85    0.0    0.0
  XR-Pump-4              100.00           1      0.00     95.00     95.00     2.736     21.85    0.0    0.0
  
  
  ***************************
  Link Pollutant Load Summary
  ***************************
  
  ------------------------------------------------------------------------------------------
                                 COD            SS            TN            TP         NH4-N
  Link                            kg            kg            kg            kg            kg
  ------------------------------------------------------------------------------------------
  WS02003066WSF200          1044.067      1940.793        29.748         2.522        15.390
  WS02006287WS02006284      1548.882      2892.137        42.988         3.573        22.067
  WS02006284WS02006280      1548.925      2891.884        43.032         3.579        22.095
  WS02006280WS02006229      1549.096      2892.334        43.032         3.579        22.095
  WS02006229WS02006228       974.367      1814.054        28.021         2.378        14.532
  WS02006256WS02006235       497.474       881.822        14.251         1.123         7.369
  WS02006253WS02006251       395.334       740.111        10.844         0.833         5.499
  WS02006252WS02006251       619.077      1248.258        12.338         0.875         6.023
  WS02006251WS02006249       173.246       338.459         4.014         0.297         1.999
  WS02006249WS02006248       172.733       337.381         4.003         0.296         1.994
  WS02006248WS02006247       172.732       337.413         4.002         0.296         1.993
  WS02006247WS02006245       172.476       336.892         3.997         0.296         1.991
  WS02006245WS02006243       172.282       336.532         3.992         0.296         1.988
  WS02006243WS02006242       172.476       336.975         3.995         0.296         1.989
  WS02006242WS02006240       172.059       336.114         3.986         0.295         1.985
  WS02006240WS02006239       172.162       336.284         3.989         0.295         1.987
  WS02006239WS02006238       172.616       337.152         4.000         0.297         1.993
  WS02006238WS02006235       173.146       338.101         4.016         0.298         2.001
  WS02006235WS02006234       618.133      1144.418        16.559         1.324         8.380
  WS02006234WS02006232       619.057      1146.354        16.579         1.326         8.390
  WS02006232WS02006231       618.980      1145.907        16.587         1.326         8.394
  WS02006231WS02006230       619.271      1146.415        16.598         1.327         8.400
  WS02006230WS02006229       619.450      1146.317        16.620         1.329         8.412
  WS02006228WS02006109       974.230      1814.128        27.974         2.372        14.502
  WS02006116WS02004401      1052.771      1954.874        30.371         2.595        15.768
  WS02006115WS02006116      1052.984      1954.995        30.421         2.601        15.800
  WS02006113WS02006111       982.866      1829.063        28.703         2.463        14.956
  WS02006112WS02006115      1054.328      1957.632        30.478         2.608        15.834
  WS02006111WS02006112       981.431      1825.874        28.664         2.459        14.934
  WS02006110WS02006113       982.625      1828.320        28.712         2.464        14.962
  WS02006109WS02006110       982.783      1828.166        28.759         2.470        14.992
  WS02004411WS02004412      1047.734      1947.631        29.932         2.543        15.499
  WS02004401WS02004402      1051.598      1952.752        30.305         2.587        15.728
  WS02004413WS02003067      1044.305      1940.902        29.787         2.526        15.414
  WS02004412WS02004413      1046.749      1945.884        29.868         2.535        15.460
  WS02004410WS02004411      1048.091      1948.051        29.975         2.548        15.526
  WS02004409WS02004410      1048.625      1948.975        30.011         2.552        15.548
  WS02004407WS02004409      1048.757      1949.002        30.040         2.556        15.566
  WS02004406WS02004407      1048.648      1948.601        30.051         2.557        15.573
  WS02004405WS02004406      1049.743      1949.951        30.177         2.573        15.652
  WS02004404WS02004405      1050.142      1950.187        30.240         2.580        15.691
  WS02004403WS02004404      1049.672      1949.491        30.175         2.572        15.650
  WS02004402WS02004403      1050.803      1951.541        30.237         2.579        15.687
  WS02004139WS02001211       233.132       429.938         8.754         0.875         4.874
  WS02004138WS02004139      1006.627      1720.028        62.045         7.000        36.799
  WS02003067WS02003066      1044.285      1941.283        29.753         2.522        15.393
  WS02001213WS02003059       218.612       406.578         7.216         0.679         3.904
  WS02001212WS02001213       221.613       411.158         7.604         0.730         4.152
  WS02001211WS02001212       223.784       415.024         7.820         0.758         4.289
  WS02003072WS02003073       970.289      1766.693        36.194         3.546        20.013
  WS02003069WS02003072       973.458      1773.021        36.356         3.565        20.111
  WS02003060WS02003069       971.723      1770.131        36.201         3.546        20.014
  WS02003059WS02003060       218.741       406.064         7.151         0.667         3.855
  HS02004901HS02004770        81.563       149.694         2.101         0.170         1.048
  HS02004876HS02004881       356.907       668.902         9.866         0.756         5.001
  HS02004870HS02004876       301.759       565.454         8.460         0.649         4.288
  HS02004842HS02004848        67.398       113.057         2.403         0.203         1.286
  HS02004837HS02004842        70.534       115.927         2.898         0.266         1.600
  HS02004830HS02004837       147.513       268.163         6.583         0.690         3.794
  HS02004824HS02004830       146.844       267.200         6.588         0.691         3.800
  HS02004817HS02004824       251.455       483.255         8.911         0.844         4.944
  HS02004770HS02004777       328.358       623.964         8.628         0.643         4.223
  HS02004799HS02004480      1009.429      1875.445        27.087         2.188        13.604
  HS02004792HS02004799       935.170      1733.579        25.239         2.056        12.674
  HS02004788HS02004792       466.785       876.592        13.136         1.060         6.631
  HS02004785HS02004788       329.695       626.061         8.767         0.661         4.311
  HS02004777HS02004785       329.305       625.656         8.705         0.653         4.271
  HS02004480HS02004478      1212.507      2244.774        32.254         2.609        16.242
  HS02004479HS02004480       208.392       378.964         5.478         0.457         2.826
  HS02004862HS02004870       259.674       481.618         7.403         0.579         3.758
  HS02004848HS02004852       173.009       315.329         5.071         0.403         2.589
  HS02004856HS02004862       208.538       384.358         5.970         0.467         3.042
  HS02004852HS02004856       173.024       315.337         5.071         0.403         2.589
  HS02004802HS02004478       337.860       649.877        10.811         0.973         5.870
  HS02004478WS02006287      1548.680      2891.491        43.004         3.576        22.077
  HS02004817HS02004807       250.112       480.807         8.770         0.827         4.856
  HS02004807HS02004802       337.894       650.028        10.833         0.977         5.885
  YS02001759YS02001757      1473.666      2831.062        34.184         2.592        17.161
  YS02001762YS02001759       733.694      1376.339        18.059         1.376         9.133
  YS02001765YS02001762       736.207      1383.027        18.102         1.379         9.155
  YS02001770YS02001767       751.356      1417.699        18.305         1.390         9.244
  YS02001774YS02001770      1071.473      2043.283        26.409         1.913        13.293
  YS02001779YS02001774      1072.156      2044.815        26.477         1.922        13.337
  YS02001649YS02001757       978.800      1859.336        23.782         1.726        11.910
  YS02001767YS02001765       741.236      1394.903        18.181         1.385         9.193
  YS02006561YS02001783      1647.895      3021.173        43.161         3.292        21.938
  YS02001783YS02001784      1647.804      3021.056        43.155         3.291        21.935
  YS02001784YS02001785      1655.574      3033.654        43.885         3.383        22.391
  YS02001788YS02001790      1656.302      3034.921        43.958         3.392        22.437
  YS02001790YS02001791      1657.559      3037.121        44.060         3.405        22.500
  YS02001791YS02001793      1657.231      3036.489        44.052         3.404        22.496
  YS02001910YS02001907      2429.452      4709.219        58.479         4.256        29.421
  YS02001786YS02001788      1655.905      3034.289        43.915         3.387        22.409
  YS02001915YS02001910      2429.182      4708.620        58.434         4.249        29.392
  YS02001918YS02001915      1529.287      2912.308        36.207         2.855        18.358
  YS02001923YS02001920      1554.828      2969.673        35.280         2.693        17.651
  YS02001926YS02001923      1551.940      2964.488        35.167         2.681        17.586
  YS02001929YS02001926      1549.241      2959.758        35.038         2.667        17.510
  YS02001920YS02001918      1576.618      3005.451        37.261         2.938        18.885
  YS02001629YS02163301      1211.309      2292.885        28.307         2.219        14.150
  YS02001619YS02001622      1134.592      2188.060        26.793         1.940        13.098
  YS02001622YS02001625      1135.518      2189.943        26.799         1.941        13.100
  YS02001625YS02001629       670.710      1259.597        15.786         1.227         7.879
  YS02163301YS02001633      1213.032      2295.212        28.363         2.224        14.181
  YS02163601YS02164001      1243.428      2302.078        29.988         2.346        15.041
  YS02164001YS02001641      1245.013      2304.981        30.002         2.346        15.045
  YS02001641YS02001644      1248.397      2311.210        30.050         2.350        15.067
  YS02001647YS02001649      1033.781      1917.348        26.184         1.967        12.998
  YS02006553YS02006556      1342.579      2431.719        36.166         2.794        18.466
  YS02006556YS02006558      1339.724      2424.479        36.105         2.787        18.430
  YSB6556YSB1171             122.275       222.213         3.163         0.263         1.629
  YS02001907YS02006553      1346.565      2441.650        36.259         2.805        18.519
  YS02006558YS02006561      1647.679      3020.725        43.158         3.292        21.937
  YS02001633YS02163601      1243.417      2301.933        29.957         2.341        15.019
  YS02001644YS02001647      1040.580      1930.667        26.296         1.975        13.051
  YS02001745YS02001748      1884.366      3700.311        44.593         3.114        22.236
  YS02001748YS02001751      1844.329      3623.433        43.628         3.048        21.759
  YS02001751YS02001754      1844.511      3623.968        43.645         3.051        21.771
  YS02001754YS02001757      1846.570      3627.542        43.834         3.075        21.890
  YS02001882YS02001884         6.242        11.488         0.113         0.008         0.055
  YS02001884YS02001887         8.773        16.268         0.159         0.012         0.078
  YS02001890YS02001895       878.178      1624.783        21.309         1.707        10.838
  YS02001895YS02001898       878.168      1624.854        21.305         1.707        10.836
  YS02001898YS02001901       877.800      1624.163        21.294         1.706        10.830
  YS02001901YS02001904       877.900      1624.383        21.318         1.709        10.846
  YS02001904YS02001907       878.562      1625.226        21.395         1.719        10.894
  YS02001887YS02001890      2584.064      4833.268        61.905         4.977        31.408
  YS02001652YS02001649      1825.297      3464.805        44.124         3.410        21.653
  YS02001655YS02001652      1825.413      3464.960        44.131         3.411        21.657
  YS02001658YS02001655      1847.198      3503.950        44.657         3.448        21.907
  YS02001661YS02001658      1848.154      3505.541        44.687         3.450        21.922
  YS02001664YS02001661      1854.384      3513.138        44.965         3.470        22.056
  YSB1154YSB6556             122.117       222.257         3.118         0.257         1.600
  YSB1174YSB1171              84.791       154.757         2.201         0.181         1.127
  YSB1171HS02004479          208.145       378.475         5.483         0.458         2.830
  HS02004881HS02006253       384.221       720.967        10.559         0.808         5.352
  YS02001793JiankangQianchi      1657.290      3036.560        44.055         3.404        22.497
  YS02001757CaochengTiaoxuchi       950.365      1890.780        19.793         1.407         9.724
  WSF200WS02003060          1044.455      1941.827        29.743         2.521        15.386
  1                          987.049      1797.101        37.426         3.698        20.775
  CC-Pump-1                  619.114      1248.330        12.338         0.875         6.023
  CC-Pump-2                    0.000         0.000         0.000         0.000         0.000
  JK-Pump-1                  568.629      1013.306        16.133         1.270         8.332
  JK-Pump-2                    0.000         0.000         0.000         0.000         0.000
  XR-Pump-1                  251.837       430.305        15.523         1.751         9.207
  XR-Pump-2                  251.837       430.305        15.523         1.751         9.207
  XR-Pump-3                  251.837       430.305        15.523         1.751         9.207
  XR-Pump-4                  251.837       430.305        15.523         1.751         9.207
  3                          841.869      1651.178        19.223         1.417         9.557
  5                         1241.207      2289.991        33.156         2.610        16.866
  6                         1241.713      2153.054        70.979         7.897        41.785
  

  Analysis begun on:  Tue Jul  6 19:23:03 2021
  Analysis ended on:  Tue Jul  6 19:23:07 2021
  Total elapsed time: 00:00:04