
  EPA STORM WATER MANAGEMENT MODEL - VERSION 5.1 (Build 5.3.0.dev0)
  --------------------------------------------------------------

  WARNING 04: minimum elevation drop used for Conduit WS02004404WS02004405
  WARNING 03: negative offset ignored for Link YS02001904YS02001907
  
  *********************************************************
  NOTE: The summary statistics displayed in this report are
  based on results found at every computational time step,  
  not just on results from each reporting time step.
  *********************************************************
  
  ****************
  Analysis Options
  ****************
  Flow Units ............... LPS
  Process Models:
    Rainfall/Runoff ........ YES
    RDII ................... NO
    Snowmelt ............... NO
    Groundwater ............ NO
    Flow Routing ........... YES
    Ponding Allowed ........ NO
    Water Quality .......... YES
  Infiltration Method ...... HORTON
  Flow Routing Method ...... DYNWAVE
  Surcharge Method ......... EXTRAN
  Starting Date ............ 08/28/2015 08:00:00
  Ending Date .............. 08/28/2015 16:00:00
  Antecedent Dry Days ...... 8.0
  Report Time Step ......... 00:01:00
  Wet Time Step ............ 00:01:00
  Dry Time Step ............ 00:01:00
  Routing Time Step ........ 5.00 sec
  Variable Time Step ....... YES
  Maximum Trials ........... 8
  Number of Threads ........ 4
  Head Tolerance ........... 0.001500 m
  
  
  **************************        Volume         Depth
  Runoff Quantity Continuity     hectare-m            mm
  **************************     ---------       -------
  Total Precipitation ......         3.640         7.970
  Evaporation Loss .........         0.000         0.000
  Infiltration Loss ........         0.736         1.612
  Surface Runoff ...........         2.275         4.981
  Final Storage ............         0.630         1.378
  Continuity Error (%) .....        -0.019
  
  
  **************************           COD            SS            TN            TP         NH4-N
  Runoff Quality Continuity             kg            kg            kg            kg            kg
  **************************    ----------    ----------    ----------    ----------    ----------
  Initial Buildup ..........     41378.656     70582.865      1804.177       168.684      1032.807
  Surface Buildup ..........        14.659        22.471         2.272         0.209         1.336
  Wet Deposition ...........         0.000         0.000         0.000         0.000         0.000
  Sweeping Removal .........         0.000         0.000         0.000         0.000         0.000
  Infiltration Loss ........        44.533        79.758         0.866         0.059         0.408
  BMP Removal ..............         0.000         0.000         0.000         0.000         0.000
  Surface Runoff ...........      1516.374      2644.708        30.253         1.987        14.288
  Remaining Buildup ........     39831.976     67880.118      1775.320       166.846      1019.443
  Continuity Error (%) .....         0.001         0.001         0.000         0.000         0.000
  
  
  **************************        Volume        Volume
  Flow Routing Continuity        hectare-m      10^6 ltr
  **************************     ---------     ---------
  Dry Weather Inflow .......         0.630         6.296
  Wet Weather Inflow .......         2.274        22.741
  Groundwater Inflow .......         0.000         0.000
  RDII Inflow ..............         0.000         0.000
  External Inflow ..........         0.105         1.045
  External Outflow .........         1.623        16.232
  Flooding Loss ............         0.984         9.845
  Evaporation Loss .........         0.000         0.000
  Exfiltration Loss ........         0.000         0.000
  Initial Stored Volume ....         0.076         0.761
  Final Stored Volume ......         0.594         5.935
  Continuity Error (%) .....        -3.789
  
  
  **************************           COD            SS            TN            TP         NH4-N
  Quality Routing Continuity            kg            kg            kg            kg            kg
  **************************    ----------    ----------    ----------    ----------    ----------
  Dry Weather Inflow .......      1573.993      2518.389       151.103        18.888        94.440
  Wet Weather Inflow .......      1515.963      2644.042        30.244         1.986        14.284
  Groundwater Inflow .......         0.000         0.000         0.000         0.000         0.000
  RDII Inflow ..............         0.000         0.000         0.000         0.000         0.000
  External Inflow ..........       187.321       299.713        17.983         2.248        11.239
  External Outflow .........      2021.572      3322.649       158.644        19.275        97.651
  Flooding Loss ............       636.943      1099.341        14.318         1.079         7.156
  Exfiltration Loss ........         0.000         0.000         0.000         0.000         0.000
  Mass Reacted .............         0.000         0.000         0.000         0.000         0.000
  Initial Stored Mass ......         0.000         0.000         0.000         0.000         0.000
  Final Stored Mass ........       443.202       745.753        18.672         1.951        10.713
  Continuity Error (%) .....         5.357         5.390         3.861         3.535         3.703
  
  
  *************************
  Highest Continuity Errors
  *************************
  Node HS02004842 (19.33%)
  Node JK-storage (-16.49%)
  Node YS02001884 (12.38%)
  Node YS02001774 (5.14%)
  Node YSB1171 (4.21%)
  
  
  ***************************
  Time-Step Critical Elements
  ***************************
  Link WS02006252WS02006251 (41.82%)
  Link YS02001793JiankangQianchi (12.64%)
  Link WS02006280WS02006229 (11.22%)
  Link WS02006238WS02006235 (10.23%)
  Link YS02006556YS02006558 (9.37%)
  
  
  ********************************
  Highest Flow Instability Indexes
  ********************************
  Link WS02006113WS02006111 (59)
  Link YS02163301YS02001633 (31)
  Link YS02001629YS02163301 (31)
  Link YS02163601YS02164001 (30)
  Link YS02001619YS02001622 (30)
  
  
  *************************
  Routing Time Step Summary
  *************************
  Minimum Time Step           :     0.46 sec
  Average Time Step           :     1.64 sec
  Maximum Time Step           :     5.00 sec
  Percent in Steady State     :    -0.00
  Average Iterations per Step :     4.01
  Percent Not Converging      :    18.21
  
  
  ***************************
  Subcatchment Runoff Summary
  ***************************
  
  ------------------------------------------------------------------------------------------------------------------------------
                            Total      Total      Total      Total     Imperv       Perv      Total       Total     Peak  Runoff
                           Precip      Runon       Evap      Infil     Runoff     Runoff     Runoff      Runoff   Runoff   Coeff
  Subcatchment                 mm         mm         mm         mm         mm         mm         mm    10^6 ltr      LPS
  ------------------------------------------------------------------------------------------------------------------------------
  sub0                       7.97       0.00       0.00       0.56       7.37       0.00       7.37        0.01     1.13   0.924
  sub1                       7.97       0.00       0.00       0.88       7.01       0.00       7.01        0.05     7.41   0.879
  sub2                       7.97       0.00       0.00       2.95       4.94       0.00       4.94        0.05     6.97   0.620
  sub3                       7.97       0.00       0.00       2.95       4.91       0.00       4.91        0.11    15.30   0.616
  sub4                       7.97       0.00       0.00       0.88       6.87       0.00       6.87        0.14    18.78   0.862
  sub5                       7.97       0.00       0.00       0.56       7.32       0.00       7.32        0.08    13.18   0.919
  sub7                       7.97       0.00       0.00       0.72       7.19       0.00       7.19        0.02     4.14   0.902
  sub8                       7.97       0.00       0.00       0.72       7.18       0.00       7.18        0.05     7.57   0.901
  sub9                       7.97       0.00       0.00       0.72       7.18       0.00       7.18        0.03     5.67   0.901
  sub10                      7.97       0.00       0.00       0.64       7.25       0.00       7.25        0.08    12.87   0.910
  sub11                      7.97       0.00       0.00       0.64       7.27       0.00       7.27        0.08    14.00   0.912
  sub12                      7.97       0.00       0.00       1.04       6.89       0.00       6.89        0.06    11.01   0.864
  sub14                      7.97       0.00       0.00       0.72       7.18       0.00       7.18        0.07    11.19   0.901
  sub15                      7.97       0.00       0.00       2.39       5.52       0.00       5.52        0.09    15.44   0.693
  sub16                      7.97       0.00       0.00       2.63       5.30       0.00       5.30        0.06     9.91   0.665
  sub17                      7.97       0.00       0.00       2.55       5.38       0.00       5.38        0.05     8.11   0.675
  sub22                      7.97       0.00       0.00       3.43       4.50       0.00       4.50        0.28    47.62   0.565
  sub23                      7.97       0.00       0.00       2.95       4.98       0.00       4.98        0.24    40.25   0.625
  sub60                      7.97       0.00       0.00       0.96       5.50       0.00       5.50        1.67   151.54   0.690
  sub61                      7.97       0.00       0.00       1.35       5.66       0.00       5.66        1.75   173.84   0.711
  sub62                      7.97       0.00       0.00       0.64       6.14       0.00       6.14        1.89   183.18   0.770
  sub63                      7.97       0.00       0.00       2.31       4.98       0.00       4.98        1.51   154.60   0.624
  sub64                      7.97       0.00       0.00       1.20       5.27       0.00       5.27        1.60   144.65   0.662
  sub65                      7.97       0.00       0.00       1.04       5.36       0.00       5.36        1.65   147.50   0.672
  sub66                      7.97       0.00       0.00       2.31       4.55       0.00       4.55        1.39   129.61   0.570
  sub67                      7.97       0.00       0.00       0.64       6.54       0.00       6.54        2.02   210.42   0.821
  sub68                      7.97       0.00       0.00       1.12       5.97       0.00       5.97        1.84   186.51   0.749
  sub69                      7.97       0.00       0.00       1.20       6.25       0.00       6.25        1.46   160.45   0.784
  sub70                      7.97       6.38       0.00       4.85       8.19       0.03       8.22        1.88   178.84   0.573
  sub71                      7.97       0.00       0.00       0.64       5.95       0.00       5.95        1.41   132.06   0.747
  sub72                      7.97       0.00       0.00       0.56       4.59       0.00       4.59        0.94    70.64   0.576
  1                          7.97       8.01       0.00       1.40       8.81       1.90      10.71        2.52   189.61   0.670
  2                          7.97       0.00       0.00       3.09       1.87       0.72       2.59        1.03   101.68   0.325
  
  
  ****************************
  Subcatchment Washoff Summary
  ****************************
  
  ------------------------------------------------------------------------------------------
                                 COD            SS            TN            TP         NH4-N
  Subcatchment                    kg            kg            kg            kg            kg
  ------------------------------------------------------------------------------------------
  sub0                         1.154         2.120         0.019         0.002         0.009
  sub1                         4.872         9.141         0.092         0.006         0.044
  sub2                         2.834         5.134         0.063         0.004         0.029
  sub3                         6.993        12.550         0.152         0.010         0.069
  sub4                        11.298        21.313         0.231         0.013         0.110
  sub5                        11.203        20.746         0.197         0.015         0.095
  sub7                         2.539         4.847         0.048         0.003         0.023
  sub8                         3.864         7.535         0.079         0.004         0.038
  sub9                         3.272         6.293         0.064         0.004         0.031
  sub10                        9.278        17.409         0.170         0.012         0.082
  sub11                        9.132        17.354         0.172         0.011         0.083
  sub12                        7.524        14.018         0.135         0.010         0.065
  sub14                        6.943        13.227         0.133         0.009         0.064
  sub15                        8.153        14.791         0.161         0.011         0.075
  sub16                        5.095         9.220         0.099         0.007         0.046
  sub17                        4.666         8.366         0.087         0.007         0.041
  sub22                       23.808        42.183         0.465         0.034         0.214
  sub23                       14.685        27.044         0.329         0.021         0.149
  sub60                      100.046       174.573         2.079         0.122         0.993
  sub61                      123.393       214.145         2.359         0.156         1.132
  sub62                      130.577       230.944         2.641         0.160         1.263
  sub63                       91.162       155.872         1.919         0.131         0.879
  sub64                      121.206       203.638         2.286         0.162         1.085
  sub65                      124.418       209.983         2.365         0.164         1.125
  sub66                       71.539       121.335         1.553         0.098         0.719
  sub67                      191.816       335.962         3.465         0.248         1.669
  sub68                      137.212       240.803         2.708         0.176         1.287
  sub69                      124.078       220.276         2.379         0.162         1.131
  sub70                      198.216       352.943         4.092         0.275         1.896
  sub71                       86.927       155.115         1.872         0.103         0.893
  sub72                       63.127       104.468         1.217         0.080         0.584
  1                          121.082       217.064         2.574         0.173         1.176
  2                           16.557        27.515         0.520         0.031         0.218
  ------------------------------------------------------------------------------------------
  System                    1838.668      3217.926        36.725         2.423        17.315
  
  
  ******************
  Node Depth Summary
  ******************
  
  ---------------------------------------------------------------------------------
                                 Average  Maximum  Maximum  Time of Max    Reported
                                   Depth    Depth      HGL   Occurrence   Max Depth
  Node                 Type       Meters   Meters   Meters  days hr:min      Meters
  ---------------------------------------------------------------------------------
  WS02001211           JUNCTION     0.71     0.80     5.63     0  04:09        0.80
  WS02001212           JUNCTION     0.42     0.51     5.57     0  04:08        0.51
  WS02001213           JUNCTION     0.65     0.76     5.52     0  04:08        0.76
  WS02003069           JUNCTION     0.43     0.59     5.17     0  04:07        0.59
  WS02003072           JUNCTION     0.50     0.65     5.02     0  04:07        0.65
  WS02003073           JUNCTION     0.30     0.40     4.46     0  04:08        0.40
  WS02003060           JUNCTION     0.39     0.52     5.45     0  04:06        0.52
  WS02003066           JUNCTION     0.20     0.30     5.86     0  04:05        0.30
  WS02003059           JUNCTION     0.70     0.81     5.50     0  04:07        0.81
  WS02003067           JUNCTION     0.52     0.71     6.03     0  04:05        0.71
  WS02004401           JUNCTION     0.61     0.87     6.87     0  04:03        0.87
  WS02004402           JUNCTION     0.64     0.89     6.85     0  04:03        0.89
  WS02004403           JUNCTION     0.66     0.90     6.83     0  04:03        0.90
  WS02004404           JUNCTION     0.74     0.98     6.83     0  04:03        0.98
  WS02004406           JUNCTION     0.75     0.97     6.80     0  04:04        0.97
  WS02004409           JUNCTION     0.41     0.68     6.45     0  04:04        0.68
  WS02004410           JUNCTION     0.44     0.69     6.41     0  04:04        0.69
  WS02004411           JUNCTION     0.46     0.70     6.38     0  04:05        0.70
  WS02004412           JUNCTION     0.48     0.71     6.35     0  04:05        0.71
  WS02004413           JUNCTION     0.64     0.87     6.34     0  04:05        0.87
  WS02004405           JUNCTION     0.73     0.97     6.82     0  04:03        0.97
  WS02006109           JUNCTION     0.68     1.01     7.63     0  03:52        1.00
  WS02006110           JUNCTION     0.68     0.96     7.55     0  03:52        0.94
  WS02006111           JUNCTION     0.19     0.29     7.00     0  03:53        0.29
  WS02006112           JUNCTION     0.77     1.07     6.96     0  04:04        1.06
  WS02006113           JUNCTION     0.29     0.47     7.36     0  03:53        0.47
  WS02006115           JUNCTION     0.49     0.77     6.91     0  04:03        0.77
  WS02006116           JUNCTION     0.58     0.85     6.89     0  04:03        0.85
  WS02006230           JUNCTION     0.63     1.16     7.90     0  03:52        1.14
  WS02006231           JUNCTION     0.39     0.90     8.02     0  03:52        0.89
  WS02006232           JUNCTION     0.52     1.09     8.13     0  03:52        1.08
  WS02006234           JUNCTION     0.43     1.10     8.25     0  03:52        1.09
  WS02006235           JUNCTION     0.46     1.19     8.35     0  03:52        1.17
  WS02006238           JUNCTION     0.49     1.21     8.35     0  03:52        1.20
  WS02006240           JUNCTION     0.38     1.16     8.45     0  03:52        1.14
  WS02006242           JUNCTION     0.43     1.24     8.51     0  03:52        1.22
  WS02006243           JUNCTION     0.32     1.14     8.56     0  03:52        1.12
  WS02006245           JUNCTION     0.30     1.12     8.61     0  03:52        1.11
  WS02006247           JUNCTION     0.31     1.14     8.64     0  03:52        1.13
  WS02006248           JUNCTION     0.26     1.08     8.67     0  03:52        1.07
  WS02006249           JUNCTION     0.28     1.09     8.69     0  03:52        1.09
  WS02006239           JUNCTION     0.44     1.20     8.41     0  03:52        1.18
  WS02006251           JUNCTION     0.26     1.22     8.89     0  03:52        1.13
  WS02006252           JUNCTION     0.19     0.78     9.02     0  03:52        0.69
  WS02006253           JUNCTION     0.30     1.26     8.91     0  03:52        1.16
  WS02006256           JUNCTION     1.35     2.35     9.28     0  00:00        2.35
  WS02004138           JUNCTION     0.16     0.20     7.45     0  00:00        0.19
  WS02004139           JUNCTION     0.65     0.74     5.65     0  04:09        0.74
  WS02004407           JUNCTION     0.19     0.30     6.61     0  04:03        0.30
  WS02006228           JUNCTION     0.67     1.07     7.72     0  03:52        1.04
  WS02006229           JUNCTION     0.64     1.07     7.76     0  03:52        1.05
  WS02006280           JUNCTION     0.06     0.14     8.41     0  01:48        0.14
  WS02006284           JUNCTION     0.36     0.48     8.88     0  01:48        0.48
  WS02006287           JUNCTION     0.09     0.21     9.16     0  01:48        0.21
  WSF200               JUNCTION     0.18     0.31     5.54     0  04:05        0.31
  HS02004901           JUNCTION     0.12     0.22    10.05     0  01:36        0.22
  HS02004881           JUNCTION     0.01     0.02     9.05     0  01:48        0.02
  HS02004876           JUNCTION     0.04     0.10     9.13     0  01:47        0.10
  HS02004870           JUNCTION     0.01     0.04     9.33     0  01:48        0.04
  HS02004862           JUNCTION     0.02     0.05     9.43     0  01:49        0.05
  HS02004856           JUNCTION     0.08     0.10     9.53     0  01:48        0.10
  HS02004852           JUNCTION     0.01     0.03     9.54     0  01:50        0.03
  HS02004848           JUNCTION     0.01     0.03     9.63     0  01:48        0.03
  HS02004842           JUNCTION     0.33     0.36     9.63     0  01:48        0.36
  HS02004837           JUNCTION     0.03     0.05     9.63     0  01:48        0.05
  HS02004830           JUNCTION     0.04     0.06     9.53     0  01:49        0.06
  HS02004824           JUNCTION     0.02     0.04     9.44     0  01:51        0.04
  HS02004817           JUNCTION     0.43     0.52     9.37     0  01:49        0.52
  HS02004807           JUNCTION     0.12     0.20     9.37     0  01:49        0.20
  HS02004802           JUNCTION     0.15     0.24     9.36     0  01:48        0.24
  HS02004799           JUNCTION     0.11     0.25     9.46     0  01:45        0.25
  HS02004792           JUNCTION     0.03     0.09     9.62     0  01:45        0.09
  HS02004788           JUNCTION     0.02     0.07     9.97     0  01:45        0.07
  HS02004785           JUNCTION     0.04     0.13    10.03     0  01:37        0.13
  HS02004777           JUNCTION     0.14     0.24    10.04     0  01:37        0.24
  HS02004770           JUNCTION     0.11     0.21    10.05     0  01:36        0.21
  HS02004480           JUNCTION     0.07     0.19     9.43     0  01:45        0.19
  HS02004479           JUNCTION     0.11     0.23     9.43     0  01:46        0.23
  HS02004478           JUNCTION     0.06     0.12     9.35     0  01:47        0.12
  YS02001745           JUNCTION     0.68     0.88     8.39     0  03:12        0.87
  YS02001748           JUNCTION     1.07     1.32     8.40     0  03:06        1.31
  YS02001751           JUNCTION     1.25     1.53     8.41     0  03:08        1.52
  YS02001754           JUNCTION     1.50     1.81     8.42     0  03:06        1.80
  YS02001762           JUNCTION     1.69     2.04     8.44     0  03:01        2.02
  YS02001765           JUNCTION     1.65     1.99     8.44     0  03:01        1.96
  YS02001767           JUNCTION     1.61     1.95     8.44     0  03:01        1.91
  YS02001770           JUNCTION     1.61     1.92     8.42     0  02:52        1.89
  YS02001774           JUNCTION     1.68     1.98     8.40     0  02:52        1.96
  YS02001779           JUNCTION     1.43     1.68     8.37     0  02:49        1.68
  YS02001882           JUNCTION     0.36     0.63     7.35     0  02:58        0.63
  YS02001884           JUNCTION     0.45     0.73     7.34     0  02:57        0.73
  YS02001759           JUNCTION     1.73     2.06     8.43     0  03:05        2.06
  YS02001887           JUNCTION     0.53     0.81     7.35     0  02:58        0.80
  YS02001890           JUNCTION     0.56     0.84     7.34     0  02:58        0.83
  YS02001898           JUNCTION     0.33     0.59     7.33     0  02:48        0.59
  YS02001901           JUNCTION     0.45     0.72     7.33     0  02:56        0.72
  YS02001904           JUNCTION     0.43     0.70     7.33     0  02:57        0.69
  YS02001907           JUNCTION     0.75     1.05     7.34     0  02:57        1.05
  YS02001910           JUNCTION     0.54     0.82     7.33     0  02:57        0.82
  YS02001915           JUNCTION     0.35     0.61     7.33     0  02:56        0.60
  YS02001918           JUNCTION     0.12     0.26     7.32     0  02:57        0.25
  YS02001619           JUNCTION     1.21     1.61     8.54     0  02:35        1.48
  YS02001629           JUNCTION     1.56     1.85     8.40     0  02:48        1.85
  YS02001641           JUNCTION     1.66     1.94     8.38     0  02:49        1.94
  YS02001644           JUNCTION     1.66     1.92     8.35     0  02:48        1.92
  YS02001652           JUNCTION     1.51     2.16     8.76     0  02:55        1.85
  YS02001655           JUNCTION     1.28     2.20     9.05     0  02:55        1.62
  YS02001920           JUNCTION     0.22     0.33     7.34     0  02:58        0.33
  YS02001923           JUNCTION     0.09     0.12     7.38     0  03:01        0.12
  YS02001926           JUNCTION     0.18     0.24     7.68     0  03:01        0.24
  YS02001929           JUNCTION     0.09     0.13     7.82     0  03:01        0.13
  YS02001658           JUNCTION     1.01     2.30     9.44     0  02:55        1.40
  YS02001661           JUNCTION     0.79     2.10     9.50     0  02:55        1.23
  YS02001664           JUNCTION     0.35     0.58     8.50     0  02:54        0.56
  YS02001622           JUNCTION     1.23     1.60     8.50     0  02:35        1.50
  YS02001633           JUNCTION     1.65     1.97     8.43     0  02:49        1.95
  YS02001649           JUNCTION     1.70     2.05     8.44     0  02:52        2.04
  YS02001757           JUNCTION     1.83     2.17     8.43     0  03:06        2.16
  YS02001895           JUNCTION     0.32     0.59     7.34     0  02:57        0.59
  YS02001625           JUNCTION     1.51     1.78     8.38     0  02:47        1.78
  YS02163301           JUNCTION     1.59     1.90     8.42     0  02:49        1.89
  YS02163601           JUNCTION     1.70     2.01     8.41     0  02:49        2.00
  YS02164001           JUNCTION     1.64     1.94     8.40     0  02:49        1.93
  YS02001647           JUNCTION     1.50     1.80     8.41     0  02:54        1.79
  YSB1154              JUNCTION     0.25     0.38     9.44     0  01:46        0.38
  YSB6556              JUNCTION     0.14     0.27     9.43     0  01:45        0.27
  YSB1174              JUNCTION     0.20     0.33     9.43     0  01:45        0.33
  YSB1171              JUNCTION     0.40     0.53     9.43     0  01:46        0.53
  YS02006553           JUNCTION     0.76     1.06     7.34     0  02:39        1.05
  YS02006561           JUNCTION     0.18     0.38     7.04     0  02:44        0.35
  YS02006556           JUNCTION     0.73     1.02     7.33     0  02:55        1.01
  YS02006558           JUNCTION     0.77     1.07     7.34     0  02:55        1.06
  YS02001783           JUNCTION     0.35     1.46     7.60     0  02:44        0.90
  YS02001784           JUNCTION     0.38     1.75     7.82     0  02:44        0.93
  YS02001786           JUNCTION     0.35     1.81     7.84     0  02:44        0.91
  YS02001788           JUNCTION     0.29     1.69     7.67     0  02:44        0.83
  YS02001790           JUNCTION     0.40     1.96     7.60     0  02:42        1.09
  YS02001791           JUNCTION     0.38     1.74     7.21     0  04:54        1.19
  YS02001793           JUNCTION     0.52     1.97     6.80     0  02:44        1.79
  WSC                  OUTFALL      0.30     0.40     1.07     0  04:08        0.40
  JK-storage           STORAGE      2.50     5.80     6.60     0  01:55        5.80
  CC-storage           STORAGE      1.10     1.39     8.39     0  03:10        1.39
  XR-storage           STORAGE      3.56     5.89     3.89     0  04:10        5.89
  
  
  *******************
  Node Inflow Summary
  *******************
  
  -------------------------------------------------------------------------------------------------
                                  Maximum  Maximum                  Lateral       Total        Flow
                                  Lateral    Total  Time of Max      Inflow      Inflow     Balance
                                   Inflow   Inflow   Occurrence      Volume      Volume       Error
  Node                 Type           LPS      LPS  days hr:min    10^6 ltr    10^6 ltr     Percent
  -------------------------------------------------------------------------------------------------
  WS02001211           JUNCTION      7.35   388.91     0  02:49       0.212        9.72       0.122
  WS02001212           JUNCTION      0.00   390.34     0  02:49           0        9.71       0.088
  WS02001213           JUNCTION      0.00   391.77     0  02:49           0        9.71       0.174
  WS02003069           JUNCTION      0.32   955.70     0  04:07     0.00922        16.3       0.120
  WS02003072           JUNCTION      0.00   955.53     0  04:07           0        16.2       0.161
  WS02003073           JUNCTION      1.82   957.33     0  04:08      0.0524        16.3       0.168
  WS02003060           JUNCTION     16.53   955.48     0  04:06       0.476        16.3       0.119
  WS02003066           JUNCTION      0.00   555.11     0  04:05           0        6.14       0.078
  WS02003059           JUNCTION      0.00   394.18     0  02:48           0         9.7       0.257
  WS02003067           JUNCTION      0.00   555.09     0  04:05           0        6.15       0.161
  WS02004401           JUNCTION      0.00   556.86     0  04:03           0         6.4       0.362
  WS02004402           JUNCTION      0.00   556.56     0  04:03           0        6.37       0.339
  WS02004403           JUNCTION      0.00   556.34     0  04:03           0        6.35       0.306
  WS02004404           JUNCTION      0.16   556.41     0  04:03     0.00467        6.34       0.228
  WS02004406           JUNCTION      0.00   556.42     0  04:04           0         6.3       0.559
  WS02004409           JUNCTION      0.00   556.13     0  04:03           0        6.26       0.289
  WS02004410           JUNCTION      0.00   555.72     0  04:04           0        6.24       0.325
  WS02004411           JUNCTION      0.00   555.44     0  04:04           0        6.22       0.330
  WS02004412           JUNCTION      0.00   555.24     0  04:05           0         6.2       0.352
  WS02004413           JUNCTION      0.00   555.17     0  04:05           0        6.18       0.518
  WS02004405           JUNCTION      0.04   556.40     0  04:03      0.0011        6.33       0.340
  WS02006109           JUNCTION      1.23   569.51     0  03:53      0.0354        6.48       0.228
  WS02006110           JUNCTION      0.00   570.16     0  03:53           0        6.46       0.315
  WS02006111           JUNCTION      0.00   591.54     0  03:53           0        6.43       0.081
  WS02006112           JUNCTION      8.11   569.00     0  03:53      0.0461        6.47       0.501
  WS02006113           JUNCTION      0.00   571.87     0  03:52           0        6.44       0.169
  WS02006115           JUNCTION      0.00   569.81     0  03:53           0        6.44       0.355
  WS02006116           JUNCTION      0.00   558.10     0  04:03           0        6.42       0.305
  WS02006230           JUNCTION     10.28   528.98     0  03:52       0.296        5.04       0.276
  WS02006231           JUNCTION      0.00   519.51     0  03:52           0        4.76       0.247
  WS02006232           JUNCTION      0.00   520.40     0  03:52           0        4.77       0.429
  WS02006234           JUNCTION      0.00   521.88     0  03:52           0        4.78       0.118
  WS02006235           JUNCTION      0.00   523.54     0  03:52           0        4.91       0.341
  WS02006238           JUNCTION      0.00   387.60     0  03:50           0        1.96      -0.157
  WS02006240           JUNCTION      0.00   388.97     0  03:50           0        1.88       0.725
  WS02006242           JUNCTION      0.00   388.64     0  03:50           0        1.85       1.015
  WS02006243           JUNCTION      0.00   389.14     0  03:50           0        1.82       0.156
  WS02006245           JUNCTION      0.00   389.38     0  03:50           0        1.82       0.868
  WS02006247           JUNCTION      0.00   390.12     0  03:43           0        1.82       0.486
  WS02006248           JUNCTION      0.00   394.69     0  03:42           0        1.82       0.179
  WS02006249           JUNCTION      0.00   424.19     0  03:52           0        1.87       0.755
  WS02006239           JUNCTION      0.00   388.00     0  03:50           0        1.92       0.141
  WS02006251           JUNCTION      0.08   413.50     0  03:52     0.00222        1.91       0.425
  WS02006252           JUNCTION      0.00   400.00     0  03:40           0        1.62       0.040
  WS02006253           JUNCTION      1.13    41.46     0  01:47     0.00596        0.29       1.599
  WS02006256           JUNCTION      0.00   983.00     0  02:10           0        6.68      -0.005
  WS02004138           JUNCTION      0.00   380.00     0  00:00           0        9.52       0.027
  WS02004139           JUNCTION      0.32   395.85     0  00:00     0.00924        9.53       0.201
  WS02004407           JUNCTION      0.00   556.20     0  04:04           0        6.27       0.129
  WS02006228           JUNCTION      0.00   568.47     0  03:53           0        6.46       0.204
  WS02006229           JUNCTION      0.00   560.63     0  03:52           0        6.47       0.256
  WS02006280           JUNCTION      0.00   204.95     0  01:48           0        1.45       0.005
  WS02006284           JUNCTION      0.10   204.95     0  01:48     0.00275        1.45       0.029
  WS02006287           JUNCTION      0.00   204.86     0  01:47           0        1.45       0.050
  WSF200               JUNCTION      0.00   555.13     0  04:06           0        6.13       0.075
  HS02004901           JUNCTION      9.91     9.91     0  01:30      0.0555      0.0558       3.252
  HS02004881           JUNCTION      4.14    40.49     0  01:47      0.0242       0.257       0.043
  HS02004876           JUNCTION      7.41    36.48     0  01:47      0.0466       0.233       0.226
  HS02004870           JUNCTION      7.57    29.14     0  01:48      0.0459       0.187       0.056
  HS02004862           JUNCTION      7.17    21.74     0  01:48      0.0518       0.141       0.118
  HS02004856           JUNCTION      5.67    14.61     0  01:48      0.0345      0.0907       1.615
  HS02004852           JUNCTION      0.00     9.08     0  01:48           0      0.0562       0.091
  HS02004848           JUNCTION     15.30    15.30     0  01:49        0.11        0.11       0.038
  HS02004842           JUNCTION      0.00     6.70     0  02:15           0      0.0673      23.961
  HS02004837           JUNCTION     19.22    25.27     0  01:48       0.263       0.317       0.256
  HS02004830           JUNCTION      0.15    25.40     0  01:48     0.00432       0.307       0.402
  HS02004824           JUNCTION     18.83    43.37     0  01:51       0.145       0.451       0.119
  HS02004817           JUNCTION      0.60    43.96     0  01:51      0.0173       0.468       3.695
  HS02004807           JUNCTION     14.00    57.42     0  01:50      0.0844       0.536       0.818
  HS02004802           JUNCTION      0.00    57.58     0  01:51           0       0.535       0.741
  HS02004799           JUNCTION     11.19   124.89     0  01:45      0.0683        0.79       0.365
  HS02004792           JUNCTION     47.90   113.71     0  01:44       0.292       0.723       0.056
  HS02004788           JUNCTION     17.11    66.21     0  01:45       0.143       0.431       0.090
  HS02004785           JUNCTION      0.15    49.24     0  01:36     0.00432        0.29       0.167
  HS02004777           JUNCTION      0.03    49.25     0  01:34    0.000864        0.29       1.822
  HS02004770           JUNCTION     40.25    49.72     0  01:32       0.237       0.291       1.067
  HS02004480           JUNCTION      0.00   148.18     0  01:45           0        0.93       0.100
  HS02004479           JUNCTION      0.00    23.31     0  01:48           0       0.152       0.484
  HS02004478           JUNCTION      0.00   204.85     0  01:47           0        1.45       0.024
  YS02001745           JUNCTION    151.55   201.44     0  02:35        1.67        1.67       0.661
  YS02001748           JUNCTION      0.04   326.30     0  02:34      0.0013        1.66       1.397
  YS02001751           JUNCTION      0.01   332.51     0  02:24    0.000317        1.63       1.434
  YS02001754           JUNCTION      0.26   194.12     0  02:22     0.00749        1.62       1.551
  YS02001762           JUNCTION      0.00   201.53     0  02:36           0        1.55       1.387
  YS02001765           JUNCTION      0.00   196.25     0  02:36           0        1.56       1.602
  YS02001767           JUNCTION      0.54   192.28     0  02:36      0.0154        1.58       2.311
  YS02001770           JUNCTION    183.33   261.38     0  03:17        1.89        1.99       1.622
  YS02001774           JUNCTION      0.00   263.17     0  03:17           0       0.492       5.421
  YS02001779           JUNCTION      0.01   264.03     0  03:17    0.000144       0.458       3.476
  YS02001882           JUNCTION      0.00    17.43     0  02:49           0       0.014      15.852
  YS02001884           JUNCTION      0.00    19.79     0  02:50           0      0.0434      14.126
  YS02001759           JUNCTION    173.88   371.39     0  02:36        1.75        3.18       0.724
  YS02001887           JUNCTION    210.87   223.75     0  03:00        2.03        2.05       0.374
  YS02001890           JUNCTION      0.00   221.79     0  02:52           0        2.02       0.418
  YS02001898           JUNCTION      0.00   227.29     0  03:02           0           2       0.121
  YS02001901           JUNCTION      0.00   231.46     0  02:48           0           2       0.308
  YS02001904           JUNCTION      0.00   233.17     0  02:51           0           2       0.281
  YS02001907           JUNCTION      0.00   450.96     0  02:59           0         4.4       0.521
  YS02001910           JUNCTION      0.00   228.14     0  03:04           0        2.41       0.451
  YS02001915           JUNCTION    132.08   216.25     0  03:04        1.41        2.42       0.212
  YS02001918           JUNCTION      0.00    81.68     0  03:05           0        1.01       0.150
  YS02001619           JUNCTION    129.61   129.61     0  03:01        1.39        1.39       0.878
  YS02001629           JUNCTION      0.00   196.69     0  02:26           0        1.31       2.226
  YS02001641           JUNCTION      0.00   296.50     0  02:35           0        2.86       0.744
  YS02001644           JUNCTION    144.69   827.90     0  03:12         1.6        6.76       0.386
  YS02001652           JUNCTION      0.00   215.46     0  03:01           0        1.46       1.670
  YS02001655           JUNCTION      0.15   312.50     0  02:23     0.00443        1.49       1.602
  YS02001920           JUNCTION      2.87    73.45     0  03:01      0.0827        1.02       0.247
  YS02001923           JUNCTION      0.04    70.59     0  03:01     0.00109       0.935       0.045
  YS02001926           JUNCTION      0.05    70.67     0  03:01      0.0015       0.937       0.304
  YS02001929           JUNCTION     70.64    70.64     0  03:01       0.935       0.935       0.043
  YS02001658           JUNCTION      0.00   549.84     0  02:34           0        1.54       1.318
  YS02001661           JUNCTION      0.00   534.07     0  02:52           0        1.75      -0.037
  YS02001664           JUNCTION    154.60   369.21     0  02:52        1.51        1.71       0.340
  YS02001622           JUNCTION      0.00   152.28     0  02:27           0        1.38       2.354
  YS02001633           JUNCTION    147.70   295.99     0  02:35        1.65        2.92       1.110
  YS02001649           JUNCTION      0.00   572.52     0  02:49           0        4.87       0.763
  YS02001757           JUNCTION      0.00  1044.08     0  02:49           0        7.44       1.245
  YS02001895           JUNCTION      0.00   227.08     0  03:00           0        2.01       0.221
  YS02001625           JUNCTION      0.00   196.71     0  02:26           0        1.35       2.986
  YS02163301           JUNCTION      0.00   163.64     0  02:35           0        1.29       1.905
  YS02163601           JUNCTION      0.11   296.82     0  02:35     0.00317        2.88       1.051
  YS02164001           JUNCTION      0.00   296.29     0  02:35           0        2.86       0.710
  YS02001647           JUNCTION      0.00   452.02     0  03:15           0        4.07       0.701
  YSB1154              JUNCTION     13.18    13.18     0  01:46      0.0829      0.0836       1.758
  YSB6556              JUNCTION      0.00    13.26     0  01:46           0      0.0843       1.502
  YSB1174              JUNCTION     11.01    11.01     0  01:29      0.0602      0.0606       2.160
  YSB1171              JUNCTION      0.00    23.42     0  01:44           0        0.15       4.393
  YS02006553           JUNCTION      0.00   448.75     0  02:59           0        4.39       0.330
  YS02006561           JUNCTION      0.00   676.96     0  03:00           0         6.2      -0.002
  YS02006556           JUNCTION      0.00   446.82     0  02:59           0         4.4       0.239
  YS02006558           JUNCTION    187.39   661.99     0  02:59        1.86        6.23       0.081
  YS02001783           JUNCTION      0.00   642.91     0  02:57           0         6.2       0.026
  YS02001784           JUNCTION      1.06   648.07     0  03:00      0.0305        6.23       0.040
  YS02001786           JUNCTION      0.06   669.22     0  02:59     0.00162        6.23       0.043
  YS02001788           JUNCTION      0.07   714.19     0  02:59     0.00204        6.23       0.025
  YS02001790           JUNCTION      0.15   745.57     0  02:59     0.00446        6.23       0.009
  YS02001791           JUNCTION      0.00   790.56     0  02:59           0        6.23       0.008
  YS02001793           JUNCTION      0.00   848.53     0  03:00           0        6.23      -0.026
  WSC                  OUTFALL       0.00   957.23     0  04:08           0        16.2       0.000
  JK-storage           STORAGE       0.00   864.73     0  02:40           0        6.39     -14.153
  CC-storage           STORAGE       0.00  1042.16     0  02:49           0        5.63       1.145
  XR-storage           STORAGE     490.63   490.63     0  03:01        9.31        9.91      -0.794
  
  
  **********************
  Node Surcharge Summary
  **********************
  
  Surcharging occurs when water rises above the top of the highest conduit.
  ---------------------------------------------------------------------
                                               Max. Height   Min. Depth
                                   Hours       Above Crown    Below Rim
  Node                 Type      Surcharged         Meters       Meters
  ---------------------------------------------------------------------
  WS02006109           JUNCTION        1.27          0.193        1.627
  WS02006110           JUNCTION        0.22          0.052        1.798
  WS02006112           JUNCTION        0.27          0.075        1.605
  WS02006230           JUNCTION        0.20          0.078        1.492
  WS02006231           JUNCTION        0.25          0.190        1.340
  WS02006232           JUNCTION        0.75          0.394        1.086
  WS02006234           JUNCTION        0.53          0.377        0.863
  WS02006235           JUNCTION        0.63          0.478        0.812
  WS02006238           JUNCTION        0.68          0.489        0.941
  WS02006240           JUNCTION        0.49          0.451        0.939
  WS02006242           JUNCTION        0.59          0.508        0.312
  WS02006243           JUNCTION        0.33          0.428        0.342
  WS02006245           JUNCTION        0.31          0.411        0.439
  WS02006247           JUNCTION        0.33          0.426        0.334
  WS02006248           JUNCTION        0.29          0.362        0.018
  WS02006249           JUNCTION        0.31          0.390        0.000
  WS02006239           JUNCTION        0.55          0.457        0.833
  WS02006251           JUNCTION        0.17          0.189        0.991
  WS02006252           JUNCTION        0.78          0.377        0.723
  WS02006253           JUNCTION        0.18          0.224        2.256
  WS02006256           JUNCTION        6.91          2.050        0.000
  WS02006228           JUNCTION        1.18          0.236        1.964
  YS02001748           JUNCTION        5.26          0.239        0.951
  YS02001751           JUNCTION        5.51          0.528        0.672
  YS02001754           JUNCTION        5.83          0.760        0.390
  YS02001762           JUNCTION        6.12          1.037        0.113
  YS02001765           JUNCTION        6.08          0.992        0.108
  YS02001767           JUNCTION        6.05          0.947        0.083
  YS02001770           JUNCTION        6.02          0.894        0.026
  YS02001774           JUNCTION        6.11          0.979        0.071
  YS02001779           JUNCTION        5.81          0.680        0.000
  YS02001759           JUNCTION        6.14          1.062        0.148
  YS02001907           JUNCTION        0.48          0.038        0.912
  YS02001619           JUNCTION        5.47          0.610        0.000
  YS02001629           JUNCTION        5.48          0.470        0.000
  YS02001641           JUNCTION        6.09          0.943        0.157
  YS02001644           JUNCTION        6.09          0.920        0.000
  YS02001652           JUNCTION        5.89          1.130        0.000
  YS02001655           JUNCTION        5.54          1.200        0.000
  YS02001658           JUNCTION        5.30          1.300        0.000
  YS02001661           JUNCTION        0.07          1.030        0.360
  YS02001622           JUNCTION        5.52          0.600        0.020
  YS02001633           JUNCTION        6.07          0.952        0.108
  YS02001649           JUNCTION        6.12          1.050        0.000
  YS02001757           JUNCTION        6.23          1.167        0.043
  YS02001625           JUNCTION        5.95          0.780        0.000
  YS02163301           JUNCTION        6.04          0.902        0.128
  YS02163601           JUNCTION        6.12          1.015        0.065
  YS02164001           JUNCTION        6.08          0.941        0.159
  YS02001647           JUNCTION        5.93          0.801        0.099
  YS02006553           JUNCTION        0.77          0.060        1.130
  YS02001783           JUNCTION        0.13          0.655        0.945
  YS02001784           JUNCTION        0.23          0.948        0.542
  YS02001786           JUNCTION        0.14          1.006        0.424
  YS02001788           JUNCTION        0.08          0.889        0.591
  YS02001790           JUNCTION        1.21          1.157        0.000
  YS02001791           JUNCTION        1.44          0.936        0.984
  YS02001793           JUNCTION        1.87          0.968        1.632
  
  
  *********************
  Node Flooding Summary
  *********************
  
  Flooding refers to all water that overflows a node, whether it ponds or not.
  --------------------------------------------------------------------------
                                                             Total   Maximum
                                 Maximum   Time of Max       Flood    Ponded
                        Hours       Rate    Occurrence      Volume     Depth
  Node                 Flooded       LPS   days hr:min    10^6 ltr    Meters
  --------------------------------------------------------------------------
  WS02006249              0.16     99.10      0  03:52       0.043     0.000
  WS02006256              2.81    789.12      0  04:01       3.636     0.000
  YS02001779              1.66    263.91      0  03:17       0.436     0.000
  YS02001619              0.01     12.92      0  02:35       0.000     0.000
  YS02001629              0.01      4.35      0  02:49       0.000     0.000
  YS02001644              4.50    827.45      0  03:12       4.975     0.000
  YS02001652              0.01      6.33      0  02:55       0.000     0.000
  YS02001655              0.01     17.18      0  02:55       0.000     0.000
  YS02001658              0.01     29.58      0  02:55       0.000     0.000
  YS02001649              0.01     50.49      0  02:55       0.000     0.000
  YS02001625              0.04     15.20      0  02:49       0.000     0.000
  YS02001790              0.01    148.16      0  02:42       0.000     0.000
  JK-storage              0.80    626.69      0  02:45       0.754     0.000
  
  
  **********************
  Storage Volume Summary
  **********************
  
  --------------------------------------------------------------------------------------------------
                         Average     Avg  Evap Exfil       Maximum     Max    Time of Max    Maximum
                          Volume    Pcnt  Pcnt  Pcnt        Volume    Pcnt     Occurrence    Outflow
  Storage Unit           1000 m3    Full  Loss  Loss       1000 m3    Full    days hr:min        LPS
  --------------------------------------------------------------------------------------------------
  JK-storage               0.126      43     0     0         0.291     100       0  01:55     983.00
  CC-storage               3.052      19     0     0         3.879      25       0  03:10     400.00
  XR-storage               0.428      46     0     0         0.707      76       0  04:10     380.00
  
  
  ***********************
  Outfall Loading Summary
  ***********************
  
  ---------------------------------------------------------------------------------------------------------------------------------
                         Flow       Avg       Max       Total         Total         Total         Total         Total         Total
                         Freq      Flow      Flow      Volume           COD            SS            TN            TP         NH4-N
  Outfall Node           Pcnt       LPS       LPS    10^6 ltr            kg            kg            kg            kg            kg
  ---------------------------------------------------------------------------------------------------------------------------------
  WSC                   99.98    579.58    957.23      16.232      2021.645      3322.765       158.652        19.276        97.656
  ---------------------------------------------------------------------------------------------------------------------------------
  System                99.98    579.58    957.23      16.232      2021.645      3322.765       158.652        19.276        97.656
  
  
  ********************
  Link Flow Summary
  ********************
  
  -----------------------------------------------------------------------------
                                 Maximum  Time of Max   Maximum    Max/    Max/
                                  |Flow|   Occurrence   |Veloc|    Full    Full
  Link                 Type          LPS  days hr:min     m/sec    Flow   Depth
  -----------------------------------------------------------------------------
  WS02003066WSF200     CONDUIT    555.13     0  04:06      2.78    0.09    0.23
  WS02006287WS02006284 CONDUIT    204.85     0  01:48      1.62    0.09    0.22
  WS02006284WS02006280 CONDUIT    204.95     0  01:48      1.86    0.09    0.20
  WS02006280WS02006229 CONDUIT    204.95     0  01:48      2.99    0.04    0.14
  WS02006229WS02006228 CONDUIT    568.47     0  03:53      1.13    1.88    1.00
  WS02006256WS02006235 CONDUIT    288.92     0  00:00      4.23    3.06    1.00
  WS02006253WS02006251 CONDUIT     47.67     0  04:05      0.49    0.14    1.00
  WS02006252WS02006251 CONDUIT    403.31     0  03:52      3.21    1.48    1.00
  WS02006251WS02006249 CONDUIT    424.19     0  03:52      1.14    1.22    1.00
  WS02006249WS02006248 CONDUIT    394.69     0  03:42      1.19    2.16    1.00
  WS02006248WS02006247 CONDUIT    390.12     0  03:43      1.17    0.85    1.00
  WS02006247WS02006245 CONDUIT    389.38     0  03:50      1.15    3.09    1.00
  WS02006245WS02006243 CONDUIT    389.14     0  03:50      1.20    1.15    1.00
  WS02006243WS02006242 CONDUIT    388.64     0  03:50      1.08    0.83    1.00
  WS02006242WS02006240 CONDUIT    388.97     0  03:50      1.02    1.54    1.00
  WS02006240WS02006239 CONDUIT    388.00     0  03:50      1.09    1.22    1.00
  WS02006239WS02006238 CONDUIT    387.60     0  03:50      1.01    1.24    1.00
  WS02006238WS02006235 CONDUIT    386.92     0  03:49      1.45    0.86    1.00
  WS02006235WS02006234 CONDUIT    521.88     0  03:52      1.36    5.51    1.00
  WS02006234WS02006232 CONDUIT    520.40     0  03:52      1.39    1.05    1.00
  WS02006232WS02006231 CONDUIT    519.51     0  03:52      1.35    1.09    1.00
  WS02006231WS02006230 CONDUIT    518.70     0  03:52      1.41    7.87    1.00
  WS02006230WS02006229 CONDUIT    529.45     0  03:52      1.38   11.78    1.00
  WS02006228WS02006109 CONDUIT    568.28     0  03:53      1.13    2.48    1.00
  WS02006116WS02004401 CONDUIT    556.86     0  04:03      1.00    0.77    0.86
  WS02006115WS02006116 CONDUIT    558.10     0  04:03      1.02    0.72    0.78
  WS02006113WS02006111 CONDUIT    591.54     0  03:53      2.51    0.71    0.48
  WS02006112WS02006115 CONDUIT    569.81     0  03:53      0.80    0.34    0.88
  WS02006111WS02006112 CONDUIT    568.66     0  03:53      1.60    0.27    0.68
  WS02006110WS02006113 CONDUIT    571.87     0  03:52      1.35    0.52    0.79
  WS02006109WS02006110 CONDUIT    570.16     0  03:53      1.13    1.10    1.00
  WS02004411WS02004412 CONDUIT    555.24     0  04:05      0.94    0.79    0.70
  WS02004401WS02004402 CONDUIT    556.56     0  04:03      1.00    0.67    0.88
  WS02004413WS02003067 CONDUIT    555.09     0  04:05      1.13    0.24    0.60
  WS02004412WS02004413 CONDUIT    555.17     0  04:05      0.84    0.37    0.79
  WS02004410WS02004411 CONDUIT    555.44     0  04:04      0.95    0.76    0.70
  WS02004409WS02004410 CONDUIT    555.72     0  04:04      0.98    0.72    0.69
  WS02004407WS02004409 CONDUIT    556.13     0  04:03      1.50    0.20    0.49
  WS02004406WS02004407 CONDUIT    556.20     0  04:04      1.06    0.25    0.63
  WS02004405WS02004406 CONDUIT    556.42     0  04:04      1.10    1.10    0.97
  WS02004404WS02004405 CONDUIT    556.36     0  04:03      1.15    5.45    0.97
  WS02004403WS02004404 CONDUIT    556.25     0  04:03      0.98    0.40    0.94
  WS02004402WS02004403 CONDUIT    556.34     0  04:03      1.02    0.80    0.90
  WS02004139WS02001211 CONDUIT    381.56     0  02:49      0.90    0.48    0.60
  WS02004138WS02004139 CONDUIT    395.52     0  00:00      3.64    0.08    0.44
  WS02003067WS02003066 CONDUIT    555.11     0  04:05      1.23    0.18    0.42
  WS02001213WS02003059 CONDUIT    394.18     0  02:48      0.89    0.65    0.78
  WS02001212WS02001213 CONDUIT    391.77     0  02:49      1.32    0.60    0.48
  WS02001211WS02001212 CONDUIT    390.34     0  02:49      0.78    0.30    0.65
  WS02003072WS02003073 CONDUIT    955.51     0  04:08      1.74    2.06    0.49
  WS02003069WS02003072 CONDUIT    955.53     0  04:07      1.63    0.46    0.51
  WS02003060WS02003069 CONDUIT    955.38     0  04:07      1.87    0.37    0.46
  WS02003059WS02003060 CONDUIT    397.52     0  02:48      0.95    0.26    0.67
  HS02004901HS02004770 CONDUIT      9.56     0  01:34      0.07    0.04    0.31
  HS02004876HS02004881 CONDUIT     36.52     0  01:48      0.58    0.39    0.09
  HS02004870HS02004876 CONDUIT     29.13     0  01:48      0.41    0.02    0.10
  HS02004842HS02004848 CONDUIT      6.70     0  02:15      0.03    0.00    0.28
  HS02004837HS02004842 CONDUIT      6.74     0  02:19      0.42    0.00    0.29
  HS02004830HS02004837 CONDUIT     25.25     0  01:48      0.45    0.03    0.08
  HS02004824HS02004830 CONDUIT     25.40     0  01:49      0.49    0.03    0.07
  HS02004817HS02004824 CONDUIT     43.36     0  01:51      0.17    0.02    0.40
  HS02004770HS02004777 CONDUIT     49.22     0  01:34      0.24    0.09    0.33
  HS02004799HS02004480 CONDUIT    124.88     0  01:45      0.58    0.16    0.31
  HS02004792HS02004799 CONDUIT    113.70     0  01:45      0.67    0.07    0.24
  HS02004788HS02004792 CONDUIT     66.20     0  01:45      0.82    0.04    0.12
  HS02004785HS02004788 CONDUIT     49.21     0  01:37      0.50    0.37    0.14
  HS02004777HS02004785 CONDUIT     49.09     0  01:36      0.26    0.06    0.27
  HS02004480HS02004478 CONDUIT    148.09     0  01:46      0.95    0.62    0.22
  HS02004479HS02004480 CONDUIT     23.44     0  01:49      0.35    0.02    0.30
  HS02004862HS02004870 CONDUIT     21.72     0  01:49      0.48    0.02    0.06
  HS02004848HS02004852 CONDUIT      9.08     0  01:48      0.32    0.01    0.04
  HS02004856HS02004862 CONDUIT     14.59     0  01:48      0.35    0.01    0.06
  HS02004852HS02004856 CONDUIT      9.06     0  01:50      0.14    0.01    0.10
  HS02004802HS02004478 CONDUIT     57.80     0  01:51      0.33    0.05    0.26
  HS02004478WS02006287 CONDUIT    204.86     0  01:47      1.32    0.06    0.17
  HS02004817HS02004807 CONDUIT     44.26     0  01:53      0.12    0.03    0.52
  HS02004807HS02004802 CONDUIT     57.58     0  01:51      0.27    0.11    0.30
  YS02001759YS02001757 CONDUIT    375.26     0  02:36      0.48    0.27    1.00
  YS02001762YS02001759 CONDUIT    206.75     0  02:36      0.26    0.24    1.00
  YS02001765YS02001762 CONDUIT    201.53     0  02:36      0.31    0.19    1.00
  YS02001770YS02001767 CONDUIT    191.75     0  02:36      0.39    0.76    1.00
  YS02001774YS02001770 CONDUIT    263.17     0  03:17      0.34    0.17    1.00
  YS02001779YS02001774 CONDUIT    264.03     0  03:17      0.34    0.13    1.00
  YS02001649YS02001757 CONDUIT    573.09     0  02:49      0.73    0.35    1.00
  YS02001767YS02001765 CONDUIT    196.25     0  02:36      0.38    0.25    1.00
  YS02006561YS02001783 CONDUIT    642.91     0  02:57      2.10    0.33    0.74
  YS02001783YS02001784 CONDUIT    647.01     0  03:00      1.55    0.89    1.00
  YS02001784YS02001785 CONDUIT    669.17     0  02:59      1.68    1.56    1.00
  YS02001788YS02001790 CONDUIT    745.41     0  02:59      2.21    0.55    1.00
  YS02001790YS02001791 CONDUIT    790.56     0  02:59      2.63    0.86    1.00
  YS02001791YS02001793 CONDUIT    848.53     0  03:00      5.38    0.36    1.00
  YS02001910YS02001907 CONDUIT    231.41     0  03:05      0.49    0.13    0.91
  YS02001786YS02001788 CONDUIT    714.12     0  02:59      2.13    1.38    1.00
  YS02001915YS02001910 CONDUIT    228.14     0  03:04      0.62    0.11    0.71
  YS02001918YS02001915 CONDUIT     89.90     0  03:04      0.44    0.05    0.43
  YS02001923YS02001920 CONDUIT     70.58     0  03:01      0.60    0.03    0.23
  YS02001926YS02001923 CONDUIT     70.55     0  03:01      0.68    0.10    0.19
  YS02001929YS02001926 CONDUIT     70.62     0  03:01      0.73    0.03    0.18
  YS02001920YS02001918 CONDUIT     81.68     0  03:05      0.59    0.08    0.29
  YS02001629YS02163301 CONDUIT    163.64     0  02:35      0.21    0.20    1.00
  YS02001619YS02001622 CONDUIT    152.28     0  02:27      0.63    0.22    1.00
  YS02001622YS02001625 CONDUIT    196.71     0  02:26      0.42    0.10    1.00
  YS02001625YS02001629 CONDUIT    196.69     0  02:26      0.25    0.09    1.00
  YS02163301YS02001633 CONDUIT    164.07     0  02:35      0.21    0.15    1.00
  YS02163601YS02164001 CONDUIT    296.29     0  02:35      0.38    0.26    1.00
  YS02164001YS02001641 CONDUIT    296.50     0  02:35      0.38    0.40    1.00
  YS02001641YS02001644 CONDUIT    297.19     0  02:35      0.38    0.96    1.00
  YS02001647YS02001649 CONDUIT    452.02     0  03:15      0.58    0.24    1.00
  YS02006553YS02006556 CONDUIT    446.82     0  02:59      0.57    0.38    0.99
  YS02006556YS02006558 CONDUIT    474.63     0  02:59      0.61    0.37    1.00
  YSB6556YSB1171       CONDUIT     13.32     0  01:48      0.09    0.01    0.57
  YS02001907YS02006553 CONDUIT    448.75     0  02:59      0.50    0.53    1.00
  YS02006558YS02006561 CONDUIT    676.96     0  03:00      3.17    1.50    0.74
  YS02001633YS02163601 CONDUIT    296.71     0  02:35      0.38    0.31    1.00
  YS02001644YS02001647 CONDUIT    452.53     0  03:12      0.58    0.27    1.00
  YS02001745YS02001748 CONDUIT    326.25     0  02:34      1.46    0.13    0.94
  YS02001748YS02001751 CONDUIT    332.50     0  02:24      1.08    0.17    1.00
  YS02001751YS02001754 CONDUIT    193.86     0  02:22      0.95    0.09    1.00
  YS02001754YS02001757 CONDUIT    196.75     0  02:22      0.33    0.08    1.00
  YS02001882YS02001884 CONDUIT     19.79     0  02:50      0.15    0.02    0.65
  YS02001884YS02001887 CONDUIT     19.74     0  03:05      0.11    0.03    0.74
  YS02001890YS02001895 CONDUIT    227.08     0  03:00      0.39    0.11    0.71
  YS02001895YS02001898 CONDUIT    227.29     0  03:02      0.55    0.39    0.57
  YS02001898YS02001901 CONDUIT    231.46     0  02:48      0.44    0.15    0.65
  YS02001901YS02001904 CONDUIT    233.17     0  02:51      0.40    0.36    0.71
  YS02001904YS02001907 CONDUIT    239.04     0  02:39      0.34    0.08    0.85
  YS02001887YS02001890 CONDUIT    221.79     0  02:52      0.33    0.38    0.80
  YS02001652YS02001649 CONDUIT    215.96     0  03:01      0.68    0.11    1.00
  YS02001655YS02001652 CONDUIT    215.46     0  03:01      1.03    0.10    1.00
  YS02001658YS02001655 CONDUIT    312.35     0  02:23      1.26    0.13    1.00
  YS02001661YS02001658 CONDUIT    549.84     0  02:34      1.53    0.22    1.00
  YS02001664YS02001661 CONDUIT    534.07     0  02:52      1.35    0.17    0.72
  YSB1154YSB6556       CONDUIT     13.26     0  01:46      0.16    0.02    0.46
  YSB1174YSB1171       CONDUIT     11.00     0  01:31      0.06    0.02    0.58
  YSB1171HS02004479    CONDUIT     23.31     0  01:48      0.54    0.02    0.44
  HS02004881HS02006253 CONDUIT     40.49     0  01:48      1.69    0.01    0.50
  YS02001793JiankangQianchi CONDUIT    864.73     0  02:40     15.99    0.07    1.00
  YS02001757CaochengTiaoxuchi CONDUIT   1042.16     0  02:49      1.44    0.46    1.00
  WSF200WS02003060     CONDUIT    555.22     0  04:06      1.89    0.12    0.35
  1                    CONDUIT    957.23     0  04:08      3.29    0.33    0.40
  CC-Pump-1            PUMP       200.00     0  03:40              1.00
  CC-Pump-2            PUMP       200.00     0  03:40              1.00
  JK-Pump-1            PUMP       300.00     0  00:00              1.00
  JK-Pump-2            PUMP       683.00     0  02:10              1.00
  XR-Pump-1            PUMP        95.00     0  00:00              1.00
  XR-Pump-2            PUMP        95.00     0  00:00              1.00
  XR-Pump-3            PUMP        95.00     0  00:00              1.00
  XR-Pump-4            PUMP        95.00     0  00:00              1.00
  
  
  ***************************
  Flow Classification Summary
  ***************************
  
  -------------------------------------------------------------------------------------
                      Adjusted    ---------- Fraction of Time in Flow Class ---------- 
                       /Actual         Up    Down  Sub   Sup   Up    Down  Norm  Inlet 
  Conduit               Length    Dry  Dry   Dry   Crit  Crit  Crit  Crit  Ltd   Ctrl  
  -------------------------------------------------------------------------------------
  WS02003066WSF200        1.00   0.01  0.03  0.00  0.00  0.96  0.00  0.00  0.84  0.00
  WS02006287WS02006284    1.00   0.04  0.02  0.00  0.60  0.34  0.00  0.00  0.78  0.00
  WS02006284WS02006280    1.00   0.05  0.00  0.00  0.00  0.00  0.00  0.95  0.00  0.00
  WS02006280WS02006229    1.00   0.05  0.00  0.00  0.00  0.00  0.00  0.95  0.00  0.00
  WS02006229WS02006228    1.00   0.00  0.00  0.00  0.99  0.00  0.00  0.01  0.00  0.00
  WS02006256WS02006235    1.00   0.00  0.00  0.00  1.00  0.00  0.00  0.00  0.00  0.00
  WS02006253WS02006251    1.00   0.02  0.02  0.00  0.94  0.00  0.02  0.00  0.00  0.00
  WS02006252WS02006251    1.00   0.34  0.00  0.00  0.02  0.00  0.64  0.00  0.00  0.00
  WS02006251WS02006249    1.00   0.00  0.00  0.00  1.00  0.00  0.00  0.00  0.54  0.00
  WS02006249WS02006248    1.00   0.00  0.01  0.00  0.70  0.00  0.29  0.00  0.00  0.00
  WS02006248WS02006247    1.00   0.01  0.00  0.00  0.98  0.00  0.00  0.01  0.36  0.00
  WS02006247WS02006245    1.00   0.01  0.00  0.00  0.97  0.00  0.00  0.02  0.00  0.00
  WS02006245WS02006243    1.00   0.00  0.00  0.00  0.90  0.00  0.00  0.09  0.00  0.00
  WS02006243WS02006242    1.00   0.00  0.00  0.00  0.98  0.00  0.00  0.01  0.39  0.00
  WS02006242WS02006240    1.00   0.00  0.00  0.00  0.97  0.00  0.03  0.00  0.00  0.00
  WS02006240WS02006239    1.00   0.00  0.00  0.00  0.87  0.00  0.00  0.12  0.02  0.00
  WS02006239WS02006238    1.00   0.00  0.00  0.00  1.00  0.00  0.00  0.00  0.14  0.00
  WS02006238WS02006235    1.00   0.00  0.00  0.00  1.00  0.00  0.00  0.00  0.00  0.00
  WS02006235WS02006234    1.00   0.00  0.00  0.00  0.94  0.00  0.06  0.00  0.00  0.00
  WS02006234WS02006232    1.00   0.00  0.00  0.00  1.00  0.00  0.00  0.00  0.07  0.00
  WS02006232WS02006231    1.00   0.00  0.00  0.00  0.99  0.00  0.00  0.00  0.00  0.00
  WS02006231WS02006230    1.00   0.00  0.00  0.00  0.50  0.00  0.50  0.00  0.00  0.00
  WS02006230WS02006229    1.00   0.00  0.00  0.00  0.99  0.00  0.00  0.01  0.00  0.00
  WS02006228WS02006109    1.00   0.00  0.00  0.00  1.00  0.00  0.00  0.00  0.01  0.00
  WS02006116WS02004401    1.00   0.01  0.00  0.00  0.99  0.00  0.00  0.00  0.00  0.00
  WS02006115WS02006116    1.00   0.01  0.00  0.00  0.98  0.00  0.00  0.00  0.00  0.00
  WS02006113WS02006111    1.00   0.01  0.00  0.00  0.00  0.99  0.00  0.00  0.26  0.00
  WS02006112WS02006115    1.00   0.01  0.00  0.00  0.99  0.00  0.00  0.00  0.00  0.00
  WS02006111WS02006112    1.00   0.01  0.00  0.00  0.99  0.00  0.00  0.00  0.98  0.00
  WS02006110WS02006113    1.00   0.01  0.00  0.00  0.99  0.00  0.00  0.00  0.00  0.00
  WS02006109WS02006110    1.00   0.00  0.01  0.00  0.99  0.00  0.00  0.00  0.00  0.00
  WS02004411WS02004412    1.00   0.02  0.00  0.00  0.98  0.00  0.00  0.00  0.00  0.00
  WS02004401WS02004402    1.00   0.01  0.00  0.00  0.99  0.00  0.00  0.00  0.00  0.00
  WS02004413WS02003067    1.00   0.02  0.01  0.00  0.00  0.00  0.97  0.00  0.00  0.00
  WS02004412WS02004413    1.00   0.02  0.00  0.00  0.98  0.00  0.00  0.00  0.01  0.00
  WS02004410WS02004411    1.00   0.02  0.00  0.00  0.98  0.00  0.00  0.00  0.00  0.00
  WS02004409WS02004410    1.00   0.02  0.00  0.00  0.98  0.00  0.00  0.00  0.01  0.00
  WS02004407WS02004409    1.00   0.02  0.00  0.00  0.97  0.00  0.00  0.00  0.95  0.00
  WS02004406WS02004407    1.00   0.00  0.02  0.00  0.98  0.00  0.00  0.00  0.00  0.00
  WS02004405WS02004406    1.00   0.00  0.00  0.00  1.00  0.00  0.00  0.00  0.00  0.00
  WS02004404WS02004405    1.00   0.00  0.00  0.00  1.00  0.00  0.00  0.00  0.00  0.00
  WS02004403WS02004404    1.00   0.00  0.01  0.00  0.99  0.00  0.00  0.00  0.00  0.00
  WS02004402WS02004403    1.00   0.01  0.00  0.00  0.99  0.00  0.00  0.00  0.00  0.00
  WS02004139WS02001211    1.00   0.00  0.00  0.00  1.00  0.00  0.00  0.00  0.00  0.00
  WS02004138WS02004139    1.00   0.00  0.00  0.00  1.00  0.00  0.00  0.00  1.00  0.00
  WS02003067WS02003066    1.00   0.03  0.00  0.00  0.96  0.00  0.00  0.00  0.00  0.00
  WS02001213WS02003059    1.00   0.00  0.00  0.00  1.00  0.00  0.00  0.00  0.00  0.00
  WS02001212WS02001213    1.00   0.00  0.00  0.00  0.86  0.00  0.13  0.00  0.00  0.00
  WS02001211WS02001212    1.00   0.00  0.00  0.00  1.00  0.00  0.00  0.00  0.00  0.00
  WS02003072WS02003073    1.00   0.00  0.00  0.00  0.00  0.00  0.00  1.00  0.00  0.00
  WS02003069WS02003072    1.00   0.00  0.00  0.00  1.00  0.00  0.00  0.00  0.16  0.00
  WS02003060WS02003069    1.00   0.00  0.00  0.00  0.99  0.01  0.00  0.00  0.10  0.00
  WS02003059WS02003060    1.00   0.00  0.00  0.00  1.00  0.00  0.00  0.00  0.01  0.00
  HS02004901HS02004770    1.00   0.05  0.00  0.00  0.95  0.00  0.00  0.00  0.00  0.00
  HS02004876HS02004881    1.00   0.01  0.00  0.00  0.99  0.00  0.00  0.00  0.00  0.00
  HS02004870HS02004876    1.00   0.00  0.00  0.00  0.99  0.00  0.00  0.00  0.95  0.00
  HS02004842HS02004848    1.00   0.00  0.05  0.00  0.95  0.00  0.00  0.00  0.58  0.00
  HS02004837HS02004842    1.00   0.00  0.00  0.00  1.00  0.00  0.00  0.00  0.11  0.00
  HS02004830HS02004837    1.00   0.00  0.00  0.00  1.00  0.00  0.00  0.00  0.99  0.00
  HS02004824HS02004830    1.00   0.00  0.00  0.00  1.00  0.00  0.00  0.00  0.00  0.00
  HS02004817HS02004824    1.00   0.00  0.00  0.00  1.00  0.00  0.00  0.00  1.00  0.00
  HS02004770HS02004777    1.00   0.00  0.05  0.00  0.95  0.00  0.00  0.00  0.02  0.00
  HS02004799HS02004480    1.00   0.00  0.02  0.00  0.94  0.00  0.04  0.00  0.00  0.00
  HS02004792HS02004799    1.00   0.00  0.00  0.00  0.99  0.01  0.00  0.00  0.98  0.00
  HS02004788HS02004792    1.00   0.00  0.00  0.00  0.99  0.01  0.00  0.00  0.98  0.00
  HS02004785HS02004788    1.00   0.00  0.00  0.00  1.00  0.00  0.00  0.00  0.00  0.00
  HS02004777HS02004785    1.00   0.00  0.00  0.00  1.00  0.00  0.00  0.00  0.11  0.00
  HS02004480HS02004478    1.00   0.05  0.00  0.00  0.66  0.00  0.00  0.29  0.00  0.00
  HS02004479HS02004480    1.00   0.02  0.00  0.00  0.98  0.00  0.00  0.00  0.11  0.00
  HS02004862HS02004870    1.00   0.00  0.00  0.00  1.00  0.00  0.00  0.00  0.03  0.00
  HS02004848HS02004852    1.00   0.05  0.00  0.00  0.95  0.00  0.00  0.00  0.78  0.00
  HS02004856HS02004862    1.00   0.00  0.06  0.00  0.94  0.00  0.00  0.00  0.84  0.00
  HS02004852HS02004856    1.00   0.05  0.00  0.00  0.95  0.00  0.00  0.00  0.86  0.00
  HS02004802HS02004478    1.00   0.05  0.00  0.00  0.95  0.00  0.00  0.00  0.02  0.00
  HS02004478WS02006287    1.00   0.06  0.00  0.00  0.80  0.15  0.00  0.00  0.77  0.00
  HS02004817HS02004807    1.00   0.00  0.05  0.00  0.95  0.00  0.00  0.00  0.01  0.00
  HS02004807HS02004802    1.00   0.05  0.00  0.00  0.94  0.00  0.00  0.01  0.00  0.00
  YS02001759YS02001757    1.00   0.00  0.00  0.00  1.00  0.00  0.00  0.00  0.15  0.00
  YS02001762YS02001759    1.00   0.00  0.00  0.00  1.00  0.00  0.00  0.00  0.02  0.00
  YS02001765YS02001762    1.00   0.00  0.00  0.00  1.00  0.00  0.00  0.00  0.13  0.00
  YS02001770YS02001767    1.00   0.00  0.00  0.00  1.00  0.00  0.00  0.00  0.00  0.00
  YS02001774YS02001770    1.00   0.00  0.05  0.00  0.95  0.00  0.00  0.00  0.02  0.00
  YS02001779YS02001774    1.00   0.00  0.00  0.00  1.00  0.00  0.00  0.00  0.17  0.00
  YS02001649YS02001757    1.00   0.00  0.00  0.00  1.00  0.00  0.00  0.00  0.15  0.00
  YS02001767YS02001765    1.00   0.00  0.00  0.00  1.00  0.00  0.00  0.00  0.00  0.00
  YS02006561YS02001783    1.00   0.07  0.00  0.00  0.18  0.75  0.00  0.00  0.63  0.00
  YS02001783YS02001784    1.00   0.00  0.07  0.00  0.93  0.00  0.00  0.00  0.00  0.00
  YS02001784YS02001785    1.00   0.00  0.00  0.00  1.00  0.00  0.00  0.00  0.16  0.00
  YS02001788YS02001790    1.00   0.00  0.00  0.00  0.32  0.68  0.00  0.00  0.48  0.00
  YS02001790YS02001791    1.00   0.00  0.00  0.00  0.27  0.73  0.00  0.00  0.54  0.00
  YS02001791YS02001793    1.00   0.00  0.00  0.00  0.30  0.70  0.00  0.00  0.05  0.00
  YS02001910YS02001907    1.00   0.00  0.00  0.00  0.98  0.00  0.00  0.01  0.12  0.00
  YS02001786YS02001788    1.00   0.00  0.00  0.00  0.29  0.71  0.00  0.00  0.00  0.00
  YS02001915YS02001910    1.00   0.00  0.00  0.00  0.99  0.01  0.00  0.00  0.13  0.00
  YS02001918YS02001915    1.00   0.00  0.00  0.00  0.99  0.01  0.00  0.00  0.64  0.00
  YS02001923YS02001920    1.00   0.00  0.00  0.00  1.00  0.00  0.00  0.00  1.00  0.00
  YS02001926YS02001923    1.00   0.00  0.03  0.00  0.00  0.00  0.97  0.00  0.00  0.00
  YS02001929YS02001926    1.00   0.00  0.05  0.00  0.95  0.00  0.00  0.00  0.87  0.00
  YS02001920YS02001918    1.00   0.00  0.00  0.00  1.00  0.00  0.00  0.00  0.00  0.00
  YS02001629YS02163301    1.00   0.06  0.00  0.00  0.94  0.00  0.00  0.00  0.00  0.00
  YS02001619YS02001622    1.00   0.05  0.00  0.00  0.95  0.00  0.00  0.00  0.00  0.00
  YS02001622YS02001625    1.00   0.05  0.00  0.00  0.95  0.00  0.00  0.00  0.03  0.00
  YS02001625YS02001629    1.00   0.05  0.02  0.00  0.91  0.00  0.02  0.00  0.00  0.00
  YS02163301YS02001633    1.00   0.00  0.06  0.00  0.94  0.00  0.00  0.00  0.00  0.00
  YS02163601YS02164001    1.00   0.00  0.03  0.00  0.97  0.00  0.00  0.00  0.00  0.00
  YS02164001YS02001641    1.00   0.00  0.03  0.00  0.97  0.00  0.00  0.00  0.05  0.00
  YS02001641YS02001644    1.00   0.00  0.00  0.00  1.00  0.00  0.00  0.00  0.00  0.00
  YS02001647YS02001649    1.00   0.00  0.06  0.00  0.94  0.00  0.00  0.00  0.01  0.00
  YS02006553YS02006556    1.00   0.01  0.00  0.00  0.99  0.00  0.00  0.00  0.03  0.00
  YS02006556YS02006558    1.00   0.00  0.00  0.00  1.00  0.00  0.00  0.00  0.00  0.00
  YSB6556YSB1171          1.00   0.02  0.03  0.00  0.95  0.00  0.00  0.00  0.00  0.00
  YS02001907YS02006553    1.00   0.00  0.01  0.00  0.99  0.00  0.00  0.00  0.00  0.00
  YS02006558YS02006561    1.00   0.07  0.00  0.00  0.00  0.93  0.00  0.00  0.64  0.00
  YS02001633YS02163601    1.00   0.00  0.00  0.00  1.00  0.00  0.00  0.00  0.14  0.00
  YS02001644YS02001647    1.00   0.00  0.06  0.00  0.94  0.00  0.00  0.00  0.00  0.00
  YS02001745YS02001748    1.00   0.00  0.00  0.00  0.88  0.01  0.00  0.11  0.05  0.00
  YS02001748YS02001751    1.00   0.00  0.00  0.00  0.96  0.04  0.00  0.00  0.14  0.00
  YS02001751YS02001754    1.00   0.00  0.00  0.00  0.93  0.00  0.00  0.07  0.02  0.00
  YS02001754YS02001757    1.00   0.00  0.00  0.00  1.00  0.00  0.00  0.00  0.17  0.00
  YS02001882YS02001884    1.00   0.06  0.00  0.00  0.94  0.00  0.00  0.00  0.00  0.00
  YS02001884YS02001887    1.00   0.03  0.02  0.00  0.96  0.00  0.00  0.00  0.00  0.00
  YS02001890YS02001895    1.00   0.00  0.06  0.00  0.94  0.00  0.00  0.00  0.00  0.00
  YS02001895YS02001898    1.00   0.06  0.00  0.00  0.93  0.00  0.01  0.00  0.00  0.00
  YS02001898YS02001901    1.00   0.06  0.00  0.00  0.94  0.00  0.00  0.00  0.01  0.00
  YS02001901YS02001904    1.00   0.06  0.00  0.00  0.94  0.00  0.00  0.00  0.00  0.00
  YS02001904YS02001907    1.00   0.00  0.06  0.00  0.94  0.00  0.00  0.00  0.00  0.00
  YS02001887YS02001890    1.00   0.00  0.00  0.00  0.98  0.00  0.02  0.00  0.00  0.00
  YS02001652YS02001649    1.00   0.00  0.00  0.00  1.00  0.00  0.00  0.00  0.15  0.00
  YS02001655YS02001652    1.00   0.00  0.00  0.00  0.93  0.00  0.00  0.07  0.02  0.00
  YS02001658YS02001655    1.00   0.00  0.05  0.00  0.91  0.03  0.00  0.00  0.06  0.00
  YS02001661YS02001658    1.00   0.05  0.00  0.00  0.88  0.06  0.00  0.00  0.08  0.00
  YS02001664YS02001661    1.00   0.05  0.00  0.00  0.88  0.07  0.00  0.00  0.20  0.00
  YSB1154YSB6556          1.00   0.05  0.00  0.00  0.95  0.00  0.00  0.00  0.01  0.00
  YSB1174YSB1171          1.00   0.02  0.01  0.00  0.96  0.00  0.00  0.00  0.00  0.00
  YSB1171HS02004479       1.00   0.02  0.00  0.00  0.97  0.00  0.00  0.00  0.10  0.00
  HS02004881HS02006253    1.00   0.03  0.00  0.00  0.38  0.00  0.00  0.59  0.20  0.00
  YS02001793JiankangQianchi    1.00   0.00  0.00  0.00  0.66  0.34  0.00  0.00  0.42  0.00
  YS02001757CaochengTiaoxuchi    1.00   0.00  0.09  0.00  0.91  0.00  0.00  0.00  0.00  0.00
  WSF200WS02003060        1.00   0.00  0.01  0.00  0.87  0.12  0.00  0.00  0.67  0.00
  1                       1.00   0.00  0.00  0.00  0.00  1.00  0.00  0.00  0.54  0.00
  
  
  *************************
  Conduit Surcharge Summary
  *************************
  
  ----------------------------------------------------------------------------
                                                           Hours        Hours 
                         --------- Hours Full --------   Above Full   Capacity
  Conduit                Both Ends  Upstream  Dnstream   Normal Flow   Limited
  ----------------------------------------------------------------------------
  WS02006229WS02006228        1.18      1.35      1.18      2.69         1.18
  WS02006256WS02006235        4.70      4.70      6.91      3.78         0.01
  WS02006253WS02006251        0.31      0.31      0.33      0.01         0.01
  WS02006252WS02006251        0.51      0.51      0.78      0.71         0.01
  WS02006251WS02006249        0.30      0.31      0.31      0.46         0.21
  WS02006249WS02006248        0.29      0.29      0.31      1.31         0.01
  WS02006248WS02006247        0.30      0.30      0.33      0.01         0.01
  WS02006247WS02006245        0.31      0.34      0.31      1.54         0.31
  WS02006245WS02006243        0.32      0.32      0.33      0.27         0.08
  WS02006243WS02006242        0.37      0.37      0.59      0.01         0.01
  WS02006242WS02006240        0.49      0.49      0.65      0.67         0.01
  WS02006240WS02006239        0.51      0.52      0.55      0.39         0.15
  WS02006239WS02006238        0.63      0.65      0.68      0.38         0.19
  WS02006238WS02006235        0.65      0.65      0.73      0.01         0.01
  WS02006235WS02006234        0.53      0.53      0.63      4.55         0.01
  WS02006234WS02006232        0.57      0.57      0.75      0.21         0.21
  WS02006232WS02006231        0.25      0.25      0.75      0.23         0.01
  WS02006231WS02006230        0.20      0.20      0.26      4.87         0.01
  WS02006230WS02006229        1.98      2.40      1.98      5.56         1.98
  WS02006228WS02006109        1.27      1.59      1.27      4.05         1.27
  WS02006112WS02006115        0.01      0.01      0.27      0.01         0.01
  WS02006111WS02006112        0.01      0.01      2.75      0.01         0.01
  WS02006110WS02006113        0.01      0.01      1.47      0.01         0.01
  WS02006109WS02006110        0.22      0.22      1.59      0.22         0.01
  WS02004405WS02004406        0.01      0.01      0.01      0.23         0.01
  WS02004404WS02004405        0.01      0.01      0.01      5.41         0.01
  WS02003072WS02003073        0.01      0.01      0.01      5.25         0.01
  YS02001759YS02001757        6.14      6.14      6.23      0.01         0.01
  YS02001762YS02001759        6.12      6.12      6.14      0.01         0.01
  YS02001765YS02001762        6.08      6.08      6.12      0.01         0.01
  YS02001770YS02001767        6.04      6.04      6.05      0.01         0.64
  YS02001774YS02001770        6.02      6.02      6.11      0.01         0.01
  YS02001779YS02001774        5.81      5.81      6.11      0.01         0.01
  YS02001649YS02001757        6.12      6.12      6.23      0.01         0.01
  YS02001767YS02001765        6.05      6.05      6.08      0.01         0.01
  YS02006561YS02001783        0.01      0.01      0.13      0.01         0.01
  YS02001783YS02001784        0.13      0.13      0.23      0.01         0.01
  YS02001784YS02001785        0.14      0.23      0.14      1.50         0.13
  YS02001788YS02001790        0.08      0.08      1.21      0.01         0.01
  YS02001790YS02001791        1.21      1.21      1.44      0.01         0.01
  YS02001791YS02001793        1.43      1.43      2.01      0.01         0.01
  YS02001910YS02001907        0.01      0.01      0.48      0.01         0.01
  YS02001786YS02001788        0.08      0.14      0.08      0.91         0.07
  YS02001629YS02163301        6.01      6.01      6.04      0.01         0.01
  YS02001619YS02001622        5.47      5.47      5.52      0.01         0.01
  YS02001622YS02001625        5.52      5.52      5.95      0.01         0.01
  YS02001625YS02001629        5.48      5.48      5.95      0.01         0.01
  YS02163301YS02001633        6.04      6.04      6.08      0.01         0.01
  YS02163601YS02164001        6.08      6.08      6.12      0.01         0.01
  YS02164001YS02001641        6.08      6.08      6.09      0.01         0.01
  YS02001641YS02001644        6.09      6.09      6.09      0.01         0.73
  YS02001647YS02001649        5.93      5.93      6.12      0.01         0.01
  YS02006553YS02006556        0.01      0.01      0.77      0.01         0.01
  YS02006556YS02006558        0.07      0.07      0.93      0.01         0.01
  YS02001907YS02006553        1.54      1.54      1.78      0.01         0.01
  YS02006558YS02006561        0.01      0.01      0.01      1.30         0.01
  YS02001633YS02163601        6.07      6.07      6.12      0.01         0.01
  YS02001644YS02001647        5.93      5.93      6.09      0.01         0.01
  YS02001745YS02001748        0.01      0.01      5.26      0.01         0.01
  YS02001748YS02001751        5.32      5.32      5.51      0.01         0.01
  YS02001751YS02001754        5.51      5.51      5.83      0.01         0.01
  YS02001754YS02001757        5.91      5.91      6.23      0.01         0.01
  YS02001904YS02001907        0.01      0.01      0.83      0.01         0.01
  YS02001652YS02001649        5.94      5.94      6.12      0.01         0.01
  YS02001655YS02001652        5.53      5.53      5.89      0.01         0.01
  YS02001658YS02001655        5.29      5.29      5.53      0.01         0.01
  YS02001661YS02001658        0.06      0.06      5.29      0.01         0.01
  YS02001664YS02001661        0.01      0.01      0.45      0.01         0.01
  HS02004881HS02006253        0.01      0.01      0.18      0.01         0.01
  YS02001793JiankangQianchi        1.86      1.86      4.11      0.01         0.01
  YS02001757CaochengTiaoxuchi        5.28      5.28      6.23      0.01         0.01
  
  
  ***************
  Pumping Summary
  ***************
  
  ---------------------------------------------------------------------------------------------------------
                                                  Min       Avg       Max     Total     Power    % Time Off
                        Percent   Number of      Flow      Flow      Flow    Volume     Usage    Pump Curve
  Pump                 Utilized   Start-Ups       LPS       LPS       LPS  10^6 ltr     Kw-hr    Low   High
  ---------------------------------------------------------------------------------------------------------
  CC-Pump-1               24.99           4      0.00    144.63    200.00     1.020      1.01    0.0    0.0
  CC-Pump-2               16.66           3      0.00    114.19    200.00     0.600      0.71    0.0    0.0
  JK-Pump-1               52.07           6      0.00    182.74    300.00     2.734     47.89    0.0    0.0
  JK-Pump-2               43.75           5      0.00    301.60    683.00     3.946     66.18    0.0   96.1
  XR-Pump-1               95.83           1      0.00     92.83     95.00     2.594     43.54    0.0    0.0
  XR-Pump-2               91.67           3      0.00     90.25     95.00     2.309     37.28    0.0    0.0
  XR-Pump-3               91.67           3      0.00     90.25     95.00     2.309     37.28    0.0    0.0
  XR-Pump-4               91.67           3      0.00     90.25     95.00     2.309     37.28    0.0    0.0
  
  
  ***************************
  Link Pollutant Load Summary
  ***************************
  
  ------------------------------------------------------------------------------------------
                                 COD            SS            TN            TP         NH4-N
  Link                            kg            kg            kg            kg            kg
  ------------------------------------------------------------------------------------------
  WS02003066WSF200           417.190       732.852        13.781         1.333         7.604
  WS02006287WS02006284       164.590       289.871         7.464         0.813         4.333
  WS02006284WS02006280       165.126       290.731         7.514         0.819         4.364
  WS02006280WS02006229       165.100       290.687         7.512         0.819         4.363
  WS02006229WS02006228       416.699       732.253        13.342         1.271         7.315
  WS02006256WS02006235       121.568       211.394         3.013         0.247         1.564
  WS02006253WS02006251        27.079        50.026         0.645         0.050         0.324
  WS02006252WS02006251       119.430       208.799         2.564         0.185         1.261
  WS02006251WS02006249       142.132       251.249         3.112         0.228         1.538
  WS02006249WS02006248       137.889       243.800         3.022         0.222         1.493
  WS02006248WS02006247       137.807       243.677         3.019         0.221         1.492
  WS02006247WS02006245       137.398       242.939         3.013         0.221         1.490
  WS02006245WS02006243       136.685       241.685         3.000         0.220         1.484
  WS02006243WS02006242       137.379       242.851         3.026         0.223         1.498
  WS02006242WS02006240       137.963       243.796         3.048         0.225         1.511
  WS02006240WS02006239       139.381       246.195         3.094         0.229         1.536
  WS02006239WS02006238       142.169       250.831         3.184         0.238         1.586
  WS02006238WS02006235       144.325       254.428         3.244         0.243         1.618
  WS02006235WS02006234       254.579       446.770         5.907         0.459         2.992
  WS02006234WS02006232       254.425       446.458         5.912         0.459         2.995
  WS02006232WS02006231       253.623       445.076         5.889         0.457         2.983
  WS02006231WS02006230       252.911       443.842         5.870         0.456         2.973
  WS02006230WS02006229       252.390       442.916         5.863         0.456         2.971
  WS02006228WS02006109       416.346       731.663        13.329         1.269         7.307
  WS02006116WS02004401       424.690       745.422        14.058         1.361         7.760
  WS02006115WS02006116       425.556       746.898        14.085         1.363         7.774
  WS02006113WS02006111       423.103       742.295        14.080         1.365         7.780
  WS02006112WS02006115       426.780       748.987        14.136         1.369         7.804
  WS02006111WS02006112       422.694       741.591        14.064         1.363         7.771
  WS02006110WS02006113       423.746       743.385        14.112         1.368         7.799
  WS02006109WS02006110       424.908       745.358        14.168         1.375         7.832
  WS02004411WS02004412       419.277       736.284        13.904         1.347         7.678
  WS02004401WS02004402       423.607       743.575        14.015         1.356         7.735
  WS02004413WS02003067       417.580       733.471        13.802         1.336         7.617
  WS02004412WS02004413       418.552       735.100        13.863         1.343         7.653
  WS02004410WS02004411       419.858       737.230        13.935         1.351         7.696
  WS02004409WS02004410       420.512       738.312        13.968         1.355         7.716
  WS02004407WS02004409       420.963       739.042        13.988         1.357         7.727
  WS02004406WS02004407       420.946       738.985        13.985         1.356         7.725
  WS02004405WS02004406       422.088       740.893        14.043         1.363         7.760
  WS02004404WS02004405       422.531       741.646        14.038         1.361         7.755
  WS02004403WS02004404       421.912       740.701        13.949         1.350         7.698
  WS02004402WS02004403       422.779       742.172        13.986         1.354         7.720
  WS02004139WS02001211      1432.052      2314.045       128.140        15.848        79.587
  WS02004138WS02004139      1432.523      2314.826       128.171        15.852        79.606
  WS02003067WS02003066       417.322       733.071        13.788         1.334         7.609
  WS02001213WS02003059      1477.596      2386.867       132.535        16.398        82.335
  WS02001212WS02001213      1482.274      2394.401       132.961        16.451        82.600
  WS02001211WS02001212      1481.921      2393.823       132.933        16.447        82.583
  WS02003072WS02003073      2009.322      3302.961       157.391        19.117        96.865
  WS02003069WS02003072      2011.457      3306.391       157.588        19.142        96.987
  WS02003060WS02003069      2010.351      3304.620       157.461        19.125        96.907
  WS02003059WS02003060      1477.930      2387.379       132.574        16.403        82.360
  HS02004901HS02004770         5.094         9.254         0.099         0.007         0.046
  HS02004876HS02004881        19.759        36.708         0.502         0.040         0.255
  HS02004870HS02004876        15.002        27.763         0.419         0.034         0.217
  HS02004842HS02004848         3.067         5.509         0.067         0.004         0.030
  HS02004837HS02004842         7.710        12.896         0.537         0.064         0.326
  HS02004830HS02004837        55.968        92.673         4.450         0.543         2.747
  HS02004824HS02004830        56.742        93.912         4.524         0.552         2.793
  HS02004817HS02004824        68.265       115.592         4.773         0.568         2.915
  HS02004770HS02004777        19.681        36.140         0.425         0.028         0.193
  HS02004799HS02004480        72.967       129.336         2.580         0.257         1.420
  HS02004792HS02004799        66.742       117.266         2.512         0.257         1.396
  HS02004788HS02004792        41.024        72.019         1.867         0.200         1.070
  HS02004785HS02004788        21.123        38.438         0.575         0.047         0.288
  HS02004777HS02004785        20.433        37.332         0.512         0.039         0.249
  HS02004480HS02004478        90.484       162.202         2.835         0.273         1.533
  HS02004479HS02004480        21.117        38.645         0.568         0.054         0.307
  HS02004862HS02004870        11.134        20.209         0.342         0.030         0.180
  HS02004848HS02004852         3.707         6.688         0.080         0.005         0.036
  HS02004856HS02004862         6.889        12.820         0.142         0.009         0.066
  HS02004852HS02004856         3.719         6.709         0.080         0.005         0.037
  HS02004802HS02004478        75.031       129.176         4.695         0.548         2.840
  HS02004478WS02006287       164.786       290.186         7.482         0.815         4.344
  HS02004817HS02004807        66.927       113.465         4.638         0.551         2.830
  HS02004807HS02004802        75.219       129.467         4.727         0.552         2.861
  YS02001759YS02001757       216.610       378.187         4.567         0.316         2.248
  YS02001762YS02001759       110.871       194.881         2.531         0.180         1.269
  YS02001765YS02001762       110.855       195.097         2.557         0.183         1.284
  YS02001770YS02001767       109.245       193.035         2.300         0.147         1.118
  YS02001774YS02001770        38.286        68.822         0.796         0.052         0.387
  YS02001779YS02001774        37.708        67.614         0.908         0.069         0.464
  YS02001649YS02001757       269.622       460.463         5.702         0.398         2.756
  YS02001767YS02001765       111.317       196.099         2.586         0.186         1.301
  YS02006561YS02001783       502.227       873.770        11.841         0.936         6.058
  YS02001783YS02001784       502.150       873.658        11.837         0.936         6.056
  YS02001784YS02001785       509.697       885.752        12.566         1.027         6.512
  YS02001788YS02001790       510.716       887.405        12.672         1.040         6.579
  YS02001790YS02001791       512.009       889.492        12.803         1.057         6.661
  YS02001791YS02001793       511.987       889.465        12.800         1.056         6.659
  YS02001910YS02001907       170.811       292.815         5.185         0.448         2.791
  YS02001786YS02001788       509.942       886.154        12.595         1.031         6.531
  YS02001915YS02001910       170.835       292.819         5.148         0.442         2.766
  YS02001918YS02001915        84.029       137.878         3.274         0.338         1.871
  YS02001923YS02001920        63.671       105.350         1.287         0.089         0.628
  YS02001926YS02001923        63.315       104.783         1.248         0.084         0.604
  YS02001929YS02001926        63.062       104.366         1.216         0.080         0.583
  YS02001920YS02001918        84.011       137.897         3.247         0.334         1.853
  YS02001629YS02163301        68.335       116.495         1.473         0.093         0.683
  YS02001619YS02001622        71.460       121.341         1.548         0.098         0.717
  YS02001622YS02001625        70.452       119.796         1.523         0.096         0.706
  YS02001625YS02001629        69.305       118.085         1.495         0.094         0.693
  YS02163301YS02001633        68.301       116.453         1.470         0.093         0.683
  YS02163601YS02164001       191.567       324.820         3.958         0.277         1.895
  YS02164001YS02001641       191.235       324.280         3.941         0.275         1.885
  YS02001641YS02001644       191.654       324.952         3.942         0.275         1.885
  YS02001647YS02001649       246.817       420.255         5.187         0.361         2.509
  YS02006553YS02006556       363.058       629.678         8.839         0.721         4.582
  YS02006556YS02006558       363.077       629.710         8.803         0.716         4.558
  YSB6556YSB1171              11.791        21.718         0.265         0.023         0.138
  YS02001907YS02006553       363.030       629.639         8.861         0.724         4.597
  YS02006558YS02006561       502.144       873.613        11.839         0.936         6.058
  YS02001633YS02163601       192.138       325.667         3.935         0.272         1.877
  YS02001644YS02001647       252.211       429.367         5.264         0.366         2.542
  YS02001745YS02001748       103.579       180.311         2.456         0.170         1.231
  YS02001748YS02001751       102.855       178.968         2.519         0.180         1.276
  YS02001751YS02001754       102.019       177.645         2.503         0.180         1.269
  YS02001754YS02001757       102.907       179.039         2.670         0.202         1.377
  YS02001882YS02001884         1.905         3.193         0.039         0.003         0.020
  YS02001884YS02001887         4.705         8.052         0.095         0.007         0.047
  YS02001890YS02001895       193.306       338.405         3.701         0.279         1.820
  YS02001895YS02001898       193.150       338.181         3.695         0.278         1.816
  YS02001898YS02001901       193.041       338.026         3.692         0.278         1.814
  YS02001901YS02001904       192.965       337.941         3.700         0.279         1.820
  YS02001904YS02001907       193.328       338.556         3.755         0.286         1.855
  YS02001887YS02001890       194.111       339.643         3.755         0.285         1.852
  YS02001652YS02001649        65.077       111.788         1.438         0.104         0.677
  YS02001655YS02001652        65.900       113.090         1.461         0.106         0.688
  YS02001658YS02001655        65.460       112.331         1.369         0.094         0.628
  YS02001661YS02001658        71.308       122.512         1.491         0.102         0.684
  YS02001664YS02001661        83.860       143.553         1.762         0.120         0.808
  YSB1154YSB6556              11.373        21.047         0.218         0.017         0.108
  YSB1174YSB1171               7.812        14.498         0.172         0.015         0.088
  YSB1171HS02004479           21.055        38.537         0.573         0.055         0.311
  HS02004881HS02006253        22.281        41.533         0.547         0.042         0.277
  YS02001793JiankangQianchi       512.761       890.760        12.833         1.060         6.678
  YS02001757CaochengTiaoxuchi       417.316       726.113         8.945         0.638         4.388
  WSF200WS02003060           416.973       732.521        13.771         1.332         7.598
  1                         2021.645      3322.765       158.652        19.276        97.656
  CC-Pump-1                   74.358       129.942         1.582         0.113         0.775
  CC-Pump-2                   44.629        78.151         0.946         0.068         0.464
  JK-Pump-1                  122.704       213.606         2.995         0.244         1.549
  JK-Pump-2                  220.158       383.716         5.406         0.442         2.800
  XR-Pump-1                  403.080       650.731        36.299         4.494        22.558
  XR-Pump-2                  344.086       556.209        30.709         3.797        19.069
  XR-Pump-3                  344.086       556.209        30.709         3.797        19.069
  XR-Pump-4                  344.086       556.209        30.709         3.797        19.069
  

  Analysis begun on:  Sat Jul 10 17:10:13 2021
  Analysis ended on:  Sat Jul 10 17:10:15 2021
  Total elapsed time: 00:00:02