
  EPA STORM WATER MANAGEMENT MODEL - VERSION 5.1 (Build 5.3.0.dev0)
  --------------------------------------------------------------

  WARNING 04: minimum elevation drop used for Conduit WS02004404WS02004405
  WARNING 03: negative offset ignored for Link YS02001904YS02001907
  
  *********************************************************
  NOTE: The summary statistics displayed in this report are
  based on results found at every computational time step,  
  not just on results from each reporting time step.
  *********************************************************
  
  ****************
  Analysis Options
  ****************
  Flow Units ............... LPS
  Process Models:
    Rainfall/Runoff ........ YES
    RDII ................... NO
    Snowmelt ............... NO
    Groundwater ............ NO
    Flow Routing ........... YES
    Ponding Allowed ........ NO
    Water Quality .......... YES
  Infiltration Method ...... HORTON
  Flow Routing Method ...... DYNWAVE
  Surcharge Method ......... EXTRAN
  Starting Date ............ 08/28/2015 08:00:00
  Ending Date .............. 08/28/2015 15:50:00
  Antecedent Dry Days ...... 8.0
  Report Time Step ......... 00:01:00
  Wet Time Step ............ 00:01:00
  Dry Time Step ............ 00:01:00
  Routing Time Step ........ 5.00 sec
  Variable Time Step ....... YES
  Maximum Trials ........... 8
  Number of Threads ........ 4
  Head Tolerance ........... 0.001500 m
  
  
  **************************        Volume         Depth
  Runoff Quantity Continuity     hectare-m            mm
  **************************     ---------       -------
  Total Precipitation ......         3.047         6.671
  Evaporation Loss .........         0.000         0.000
  Infiltration Loss ........         0.632         1.383
  Surface Runoff ...........         1.823         3.991
  Final Storage ............         0.593         1.299
  Continuity Error (%) .....        -0.021
  
  
  **************************           COD            SS            TN            TP         NH4-N
  Runoff Quality Continuity             kg            kg            kg            kg            kg
  **************************    ----------    ----------    ----------    ----------    ----------
  Initial Buildup ..........     41378.656     70582.865      1804.177       168.684      1032.807
  Surface Buildup ..........        15.848        22.287         2.907         0.268         1.716
  Wet Deposition ...........         0.000         0.000         0.000         0.000         0.000
  Sweeping Removal .........         0.000         0.000         0.000         0.000         0.000
  Infiltration Loss ........        35.831        64.206         0.697         0.047         0.328
  BMP Removal ..............         0.000         0.000         0.000         0.000         0.000
  Surface Runoff ...........      1183.101      2055.627        23.655         1.549        11.165
  Remaining Buildup ........     40175.184     68484.649      1782.723       167.355      1023.026
  Continuity Error (%) .....         0.001         0.001         0.000         0.000         0.000
  
  
  **************************        Volume        Volume
  Flow Routing Continuity        hectare-m      10^6 ltr
  **************************     ---------     ---------
  Dry Weather Inflow .......         0.616         6.165
  Wet Weather Inflow .......         1.822        18.220
  Groundwater Inflow .......         0.000         0.000
  RDII Inflow ..............         0.000         0.000
  External Inflow ..........         0.102         1.024
  External Outflow .........         1.513        15.133
  Flooding Loss ............         0.631         6.313
  Evaporation Loss .........         0.000         0.000
  Exfiltration Loss ........         0.000         0.000
  Initial Stored Volume ....         0.076         0.761
  Final Stored Volume ......         0.580         5.802
  Continuity Error (%) .....        -4.122
  
  
  **************************           COD            SS            TN            TP         NH4-N
  Quality Routing Continuity            kg            kg            kg            kg            kg
  **************************    ----------    ----------    ----------    ----------    ----------
  Dry Weather Inflow .......      1541.201      2465.922       147.955        18.494        92.472
  Wet Weather Inflow .......      1182.728      2055.030        23.647         1.548        11.161
  Groundwater Inflow .......         0.000         0.000         0.000         0.000         0.000
  RDII Inflow ..............         0.000         0.000         0.000         0.000         0.000
  External Inflow ..........       183.418       293.469        17.608         2.201        11.005
  External Outflow .........      1973.599      3239.686       157.211        19.151        96.914
  Flooding Loss ............       379.054       648.354         8.972         0.705         4.557
  Exfiltration Loss ........         0.000         0.000         0.000         0.000         0.000
  Mass Reacted .............         0.000         0.000         0.000         0.000         0.000
  Initial Stored Mass ......         0.000         0.000         0.000         0.000         0.000
  Final Stored Mass ........       440.451       733.991        19.983         2.135        11.585
  Continuity Error (%) .....         3.929         3.996         1.609         1.138         1.380
  
  
  *************************
  Highest Continuity Errors
  *************************
  Node HS02004842 (22.61%)
  Node YS02001774 (20.32%)
  Node JK-storage (-20.17%)
  Node YS02001884 (14.37%)
  Node YSB1171 (4.93%)
  
  
  ***************************
  Time-Step Critical Elements
  ***************************
  Link WS02006252WS02006251 (60.61%)
  Link WS02006238WS02006235 (10.22%)
  Link WS02006280WS02006229 (8.16%)
  Link YS02006556YS02006558 (5.77%)
  Link YS02001793JiankangQianchi (4.83%)
  
  
  ********************************
  Highest Flow Instability Indexes
  ********************************
  Link WS02006113WS02006111 (50)
  Link YS02163301YS02001633 (29)
  Link YS02001619YS02001622 (29)
  Link YS02001629YS02163301 (29)
  Link YS02163601YS02164001 (29)
  
  
  *************************
  Routing Time Step Summary
  *************************
  Minimum Time Step           :     0.38 sec
  Average Time Step           :     1.40 sec
  Maximum Time Step           :     5.00 sec
  Percent in Steady State     :    -0.00
  Average Iterations per Step :     4.04
  Percent Not Converging      :    16.96
  
  
  ***************************
  Subcatchment Runoff Summary
  ***************************
  
  ------------------------------------------------------------------------------------------------------------------------------
                            Total      Total      Total      Total     Imperv       Perv      Total       Total     Peak  Runoff
                           Precip      Runon       Evap      Infil     Runoff     Runoff     Runoff      Runoff   Runoff   Coeff
  Subcatchment                 mm         mm         mm         mm         mm         mm         mm    10^6 ltr      LPS
  ------------------------------------------------------------------------------------------------------------------------------
  sub0                       6.67       0.00       0.00       0.44       6.16       0.02       6.18        0.01     1.96   0.927
  sub1                       6.67       0.00       0.00       0.72       5.85       0.01       5.86        0.04    11.52   0.879
  sub2                       6.67       0.00       0.00       2.46       4.12       0.01       4.13        0.04    10.38   0.619
  sub3                       6.67       0.00       0.00       2.46       4.09       0.01       4.09        0.09    21.78   0.614
  sub4                       6.67       0.00       0.00       0.73       5.71       0.01       5.71        0.12    24.74   0.856
  sub5                       6.67       0.00       0.00       0.45       6.11       0.01       6.12        0.07    20.48   0.918
  sub7                       6.67       0.00       0.00       0.58       6.01       0.02       6.03        0.02     6.91   0.904
  sub8                       6.67       0.00       0.00       0.58       6.00       0.02       6.02        0.04    12.43   0.902
  sub9                       6.67       0.00       0.00       0.58       6.00       0.02       6.01        0.03     9.24   0.902
  sub10                      6.67       0.00       0.00       0.52       6.05       0.01       6.07        0.07    20.31   0.909
  sub11                      6.67       0.00       0.00       0.52       6.07       0.02       6.09        0.07    23.25   0.912
  sub12                      6.67       0.00       0.00       0.84       5.76       0.03       5.78        0.05    18.70   0.867
  sub14                      6.67       0.00       0.00       0.58       6.00       0.02       6.01        0.06    18.12   0.901
  sub15                      6.67       0.00       0.00       1.99       4.61       0.02       4.63        0.08    24.74   0.693
  sub16                      6.67       0.00       0.00       2.18       4.43       0.03       4.46        0.05    16.70   0.668
  sub17                      6.67       0.00       0.00       2.11       4.49       0.02       4.52        0.04    13.62   0.677
  sub22                      6.67       0.00       0.00       2.85       3.76       0.02       3.78        0.24    79.29   0.567
  sub23                      6.67       0.00       0.00       2.45       4.16       0.02       4.18        0.20    67.12   0.626
  sub60                      6.67       0.00       0.00       0.80       4.39       0.00       4.39        1.33   129.46   0.658
  sub61                      6.67       0.00       0.00       1.13       4.59       0.00       4.59        1.41   161.77   0.688
  sub62                      6.67       0.00       0.00       0.53       4.95       0.00       4.95        1.52   165.50   0.742
  sub63                      6.67       0.00       0.00       1.93       4.05       0.00       4.05        1.23   150.77   0.607
  sub64                      6.67       0.00       0.00       1.00       4.20       0.00       4.20        1.28   123.01   0.630
  sub65                      6.67       0.00       0.00       0.87       4.26       0.00       4.26        1.31   124.88   0.639
  sub66                      6.67       0.00       0.00       1.93       3.64       0.00       3.64        1.12   112.59   0.546
  sub67                      6.67       0.00       0.00       0.53       5.34       0.00       5.34        1.65   211.70   0.800
  sub68                      6.67       0.00       0.00       0.93       4.85       0.00       4.85        1.49   178.70   0.728
  sub69                      6.67       0.00       0.00       1.00       5.14       0.00       5.14        1.20   176.59   0.771
  sub70                      6.67       5.25       0.00       4.02       6.58       0.03       6.61        1.51   150.51   0.555
  sub71                      6.67       0.00       0.00       0.53       4.77       0.00       4.77        1.13   115.68   0.716
  sub72                      6.67       0.00       0.00       0.47       3.55       0.00       3.55        0.72    56.57   0.532
  1                          6.67       6.44       0.00       1.32       6.94       1.29       8.23        1.93   147.49   0.628
  2                          6.67       0.00       0.00       2.92       1.54       0.47       2.01        0.80   108.93   0.301
  
  
  ****************************
  Subcatchment Washoff Summary
  ****************************
  
  ------------------------------------------------------------------------------------------
                                 COD            SS            TN            TP         NH4-N
  Subcatchment                    kg            kg            kg            kg            kg
  ------------------------------------------------------------------------------------------
  sub0                         1.091         2.066         0.018         0.001         0.009
  sub1                         4.413         8.465         0.082         0.006         0.039
  sub2                         2.520         4.651         0.055         0.004         0.025
  sub3                         6.105        11.114         0.131         0.009         0.060
  sub4                         9.666        18.413         0.196         0.011         0.094
  sub5                        10.200        19.325         0.178         0.013         0.086
  sub7                         2.334         4.570         0.044         0.003         0.021
  sub8                         3.502         6.990         0.070         0.004         0.034
  sub9                         2.975         5.858         0.058         0.004         0.028
  sub10                        8.447        16.218         0.153         0.011         0.074
  sub11                        8.371        16.306         0.155         0.010         0.075
  sub12                        7.034        13.483         0.125         0.009         0.060
  sub14                        6.327        12.340         0.119         0.008         0.057
  sub15                        7.450        13.845         0.145         0.010         0.067
  sub16                        4.749         8.837         0.091         0.007         0.042
  sub17                        4.356         8.034         0.080         0.006         0.037
  sub22                       21.998        40.013         0.423         0.031         0.196
  sub23                       13.428        25.347         0.294         0.019         0.133
  sub60                       76.113       131.324         1.595         0.093         0.761
  sub61                       96.289       165.838         1.847         0.121         0.886
  sub62                      101.294       177.589         2.059         0.124         0.985
  sub63                       71.956       122.341         1.522         0.103         0.697
  sub64                       91.517       151.983         1.735         0.122         0.822
  sub65                       93.805       156.457         1.793         0.123         0.852
  sub66                       54.685        91.797         1.198         0.075         0.554
  sub67                      152.529       265.968         2.755         0.197         1.326
  sub68                      107.969       188.270         2.138         0.138         1.015
  sub69                      100.839       178.901         1.932         0.131         0.918
  sub70                      153.939       272.191         3.191         0.213         1.476
  sub71                       66.918       118.210         1.453         0.080         0.692
  sub72                       45.487        74.085         0.885         0.058         0.424
  1                           86.931       154.919         1.858         0.125         0.847
  2                           12.643        20.973         0.400         0.024         0.167
  ------------------------------------------------------------------------------------------
  System                    1437.880      2506.719        28.778         1.893        13.560
  
  
  ******************
  Node Depth Summary
  ******************
  
  ---------------------------------------------------------------------------------
                                 Average  Maximum  Maximum  Time of Max    Reported
                                   Depth    Depth      HGL   Occurrence   Max Depth
  Node                 Type       Meters   Meters   Meters  days hr:min      Meters
  ---------------------------------------------------------------------------------
  WS02001211           JUNCTION     0.71     0.79     5.63     0  04:14        0.79
  WS02001212           JUNCTION     0.42     0.50     5.56     0  04:14        0.50
  WS02001213           JUNCTION     0.65     0.75     5.51     0  04:13        0.75
  WS02003069           JUNCTION     0.44     0.56     5.15     0  04:12        0.56
  WS02003072           JUNCTION     0.50     0.62     5.00     0  04:13        0.62
  WS02003073           JUNCTION     0.30     0.38     4.45     0  04:13        0.38
  WS02003060           JUNCTION     0.39     0.50     5.43     0  04:11        0.50
  WS02003066           JUNCTION     0.21     0.29     5.84     0  04:09        0.29
  WS02003059           JUNCTION     0.70     0.80     5.49     0  04:12        0.80
  WS02003067           JUNCTION     0.52     0.68     6.00     0  04:09        0.68
  WS02004401           JUNCTION     0.62     0.85     6.85     0  04:06        0.84
  WS02004402           JUNCTION     0.65     0.88     6.84     0  04:06        0.88
  WS02004403           JUNCTION     0.67     0.90     6.83     0  04:06        0.89
  WS02004404           JUNCTION     0.75     0.98     6.83     0  04:06        0.98
  WS02004406           JUNCTION     0.75     0.94     6.77     0  04:07        0.94
  WS02004409           JUNCTION     0.43     0.64     6.41     0  04:08        0.64
  WS02004410           JUNCTION     0.45     0.65     6.37     0  04:09        0.65
  WS02004411           JUNCTION     0.46     0.66     6.34     0  04:09        0.66
  WS02004412           JUNCTION     0.48     0.67     6.31     0  04:10        0.67
  WS02004413           JUNCTION     0.64     0.83     6.30     0  04:10        0.83
  WS02004405           JUNCTION     0.73     0.95     6.80     0  04:06        0.94
  WS02006109           JUNCTION     0.69     0.97     7.59     0  04:03        0.96
  WS02006110           JUNCTION     0.69     0.92     7.50     0  04:03        0.92
  WS02006111           JUNCTION     0.19     0.29     6.99     0  04:04        0.28
  WS02006112           JUNCTION     0.78     1.05     6.93     0  04:05        1.05
  WS02006113           JUNCTION     0.30     0.45     7.34     0  04:03        0.45
  WS02006115           JUNCTION     0.51     0.74     6.88     0  04:05        0.74
  WS02006116           JUNCTION     0.59     0.83     6.87     0  04:06        0.82
  WS02006230           JUNCTION     0.64     1.07     7.82     0  04:03        1.07
  WS02006231           JUNCTION     0.42     1.26     8.38     0  06:53        0.80
  WS02006232           JUNCTION     0.55     1.20     8.24     0  06:53        0.98
  WS02006234           JUNCTION     0.47     1.33     8.48     0  06:53        0.99
  WS02006235           JUNCTION     0.50     1.37     8.53     0  06:53        1.06
  WS02006238           JUNCTION     0.52     1.42     8.57     0  06:53        1.09
  WS02006240           JUNCTION     0.42     1.62     8.91     0  06:53        1.02
  WS02006242           JUNCTION     0.47     1.55     8.82     0  06:53        1.09
  WS02006243           JUNCTION     0.35     1.48     8.90     0  06:53        0.99
  WS02006245           JUNCTION     0.34     1.32     8.81     0  06:53        0.97
  WS02006247           JUNCTION     0.35     1.29     8.79     0  06:53        0.99
  WS02006248           JUNCTION     0.30     1.10     8.69     0  06:53        0.94
  WS02006249           JUNCTION     0.33     1.09     8.69     0  06:53        0.96
  WS02006239           JUNCTION     0.48     1.47     8.68     0  06:53        1.06
  WS02006251           JUNCTION     0.31     0.96     8.63     0  06:54        0.95
  WS02006252           JUNCTION     0.23     0.59     8.83     0  06:14        0.59
  WS02006253           JUNCTION     0.34     0.98     8.62     0  06:54        0.96
  WS02006256           JUNCTION     1.42     2.35     9.28     0  01:12        2.35
  WS02004138           JUNCTION     0.17     0.20     7.45     0  00:00        0.19
  WS02004139           JUNCTION     0.65     0.73     5.64     0  04:15        0.73
  WS02004407           JUNCTION     0.19     0.29     6.60     0  04:07        0.29
  WS02006228           JUNCTION     0.68     1.00     7.65     0  04:03        1.00
  WS02006229           JUNCTION     0.65     1.00     7.69     0  04:03        0.99
  WS02006280           JUNCTION     0.05     0.18     8.45     0  02:12        0.18
  WS02006284           JUNCTION     0.35     0.53     8.93     0  02:12        0.53
  WS02006287           JUNCTION     0.08     0.26     9.22     0  02:12        0.26
  WSF200               JUNCTION     0.18     0.29     5.52     0  04:09        0.29
  HS02004901           JUNCTION     0.11     0.27    10.09     0  02:10        0.27
  HS02004881           JUNCTION     0.01     0.03     9.06     0  02:11        0.03
  HS02004876           JUNCTION     0.03     0.11     9.14     0  02:06        0.11
  HS02004870           JUNCTION     0.01     0.05     9.34     0  02:12        0.05
  HS02004862           JUNCTION     0.01     0.06     9.45     0  02:13        0.06
  HS02004856           JUNCTION     0.07     0.12     9.54     0  02:13        0.12
  HS02004852           JUNCTION     0.01     0.04     9.55     0  02:13        0.04
  HS02004848           JUNCTION     0.01     0.04     9.64     0  02:12        0.04
  HS02004842           JUNCTION     0.33     0.37     9.64     0  02:12        0.37
  HS02004837           JUNCTION     0.03     0.06     9.64     0  02:12        0.06
  HS02004830           JUNCTION     0.04     0.07     9.54     0  02:12        0.07
  HS02004824           JUNCTION     0.02     0.05     9.45     0  02:15        0.05
  HS02004817           JUNCTION     0.43     0.57     9.42     0  02:13        0.57
  HS02004807           JUNCTION     0.11     0.24     9.41     0  02:12        0.24
  HS02004802           JUNCTION     0.15     0.28     9.41     0  02:12        0.28
  HS02004799           JUNCTION     0.10     0.31     9.52     0  02:10        0.31
  HS02004792           JUNCTION     0.02     0.13     9.65     0  02:10        0.13
  HS02004788           JUNCTION     0.02     0.09     9.99     0  02:11        0.09
  HS02004785           JUNCTION     0.03     0.16    10.06     0  02:10        0.16
  HS02004777           JUNCTION     0.13     0.29    10.09     0  02:10        0.29
  HS02004770           JUNCTION     0.10     0.26    10.09     0  02:10        0.26
  HS02004480           JUNCTION     0.06     0.25     9.49     0  02:11        0.25
  HS02004479           JUNCTION     0.10     0.28     9.49     0  02:11        0.28
  HS02004478           JUNCTION     0.05     0.16     9.39     0  02:12        0.16
  YS02001745           JUNCTION     0.67     0.86     8.38     0  04:17        0.85
  YS02001748           JUNCTION     1.06     1.30     8.38     0  04:19        1.29
  YS02001751           JUNCTION     1.24     1.51     8.39     0  03:54        1.50
  YS02001754           JUNCTION     1.49     1.79     8.39     0  03:54        1.77
  YS02001762           JUNCTION     1.68     2.01     8.41     0  04:09        1.98
  YS02001765           JUNCTION     1.64     1.96     8.41     0  06:52        1.93
  YS02001767           JUNCTION     1.60     1.92     8.41     0  06:52        1.89
  YS02001770           JUNCTION     1.60     1.93     8.42     0  06:52        1.88
  YS02001774           JUNCTION     1.66     1.99     8.41     0  06:52        1.96
  YS02001779           JUNCTION     1.42     1.68     8.37     0  03:17        1.68
  YS02001882           JUNCTION     0.32     0.61     7.33     0  02:41        0.61
  YS02001884           JUNCTION     0.42     0.71     7.33     0  02:41        0.71
  YS02001759           JUNCTION     1.72     2.04     8.40     0  03:54        2.02
  YS02001887           JUNCTION     0.49     0.79     7.33     0  02:42        0.79
  YS02001890           JUNCTION     0.53     0.82     7.33     0  02:42        0.82
  YS02001898           JUNCTION     0.29     0.58     7.31     0  02:42        0.57
  YS02001901           JUNCTION     0.41     0.70     7.31     0  02:40        0.70
  YS02001904           JUNCTION     0.39     0.68     7.31     0  02:42        0.68
  YS02001907           JUNCTION     0.72     1.04     7.33     0  02:38        1.02
  YS02001910           JUNCTION     0.51     0.81     7.31     0  02:41        0.80
  YS02001915           JUNCTION     0.31     0.59     7.31     0  02:41        0.59
  YS02001918           JUNCTION     0.10     0.24     7.31     0  02:40        0.24
  YS02001619           JUNCTION     1.20     1.50     8.43     0  06:52        1.45
  YS02001629           JUNCTION     1.55     1.84     8.39     0  06:52        1.83
  YS02001641           JUNCTION     1.65     1.93     8.37     0  03:23        1.92
  YS02001644           JUNCTION     1.66     1.92     8.35     0  03:20        1.92
  YS02001652           JUNCTION     1.50     1.87     8.46     0  03:54        1.84
  YS02001655           JUNCTION     1.27     1.81     8.66     0  03:02        1.62
  YS02001920           JUNCTION     0.20     0.31     7.32     0  02:41        0.31
  YS02001923           JUNCTION     0.08     0.11     7.37     0  03:01        0.11
  YS02001926           JUNCTION     0.16     0.22     7.66     0  03:01        0.22
  YS02001929           JUNCTION     0.08     0.11     7.81     0  03:01        0.11
  YS02001658           JUNCTION     1.01     1.73     8.87     0  03:02        1.36
  YS02001661           JUNCTION     0.78     1.17     8.57     0  03:54        1.13
  YS02001664           JUNCTION     0.34     0.56     8.48     0  03:48        0.55
  YS02001622           JUNCTION     1.22     1.52     8.42     0  06:52        1.48
  YS02001633           JUNCTION     1.64     1.93     8.38     0  06:19        1.92
  YS02001649           JUNCTION     1.69     2.03     8.42     0  03:54        2.01
  YS02001757           JUNCTION     1.82     2.15     8.41     0  03:54        2.12
  YS02001895           JUNCTION     0.29     0.57     7.32     0  02:36        0.57
  YS02001625           JUNCTION     1.50     1.78     8.38     0  03:20        1.78
  YS02163301           JUNCTION     1.58     1.87     8.39     0  06:19        1.86
  YS02163601           JUNCTION     1.69     1.97     8.37     0  06:07        1.97
  YS02164001           JUNCTION     1.63     1.91     8.37     0  06:07        1.90
  YS02001647           JUNCTION     1.49     1.78     8.39     0  03:50        1.77
  YSB1154              JUNCTION     0.24     0.43     9.49     0  02:11        0.43
  YSB6556              JUNCTION     0.13     0.32     9.49     0  02:11        0.32
  YSB1174              JUNCTION     0.19     0.38     9.49     0  02:11        0.38
  YSB1171              JUNCTION     0.39     0.59     9.49     0  02:11        0.59
  YS02006553           JUNCTION     0.73     1.05     7.33     0  02:43        1.02
  YS02006561           JUNCTION     0.16     0.33     6.99     0  02:43        0.32
  YS02006556           JUNCTION     0.70     1.00     7.31     0  02:42        1.00
  YS02006558           JUNCTION     0.74     1.05     7.31     0  02:43        1.04
  YS02001783           JUNCTION     0.30     0.87     7.01     0  02:24        0.80
  YS02001784           JUNCTION     0.34     1.16     7.23     0  02:23        0.83
  YS02001786           JUNCTION     0.30     0.85     6.88     0  02:23        0.81
  YS02001788           JUNCTION     0.25     0.95     6.92     0  02:23        0.79
  YS02001790           JUNCTION     0.34     1.48     7.12     0  04:34        1.15
  YS02001791           JUNCTION     0.32     1.67     7.14     0  04:33        1.18
  YS02001793           JUNCTION     0.45     1.93     6.76     0  04:29        1.78
  WSC                  OUTFALL      0.30     0.38     1.05     0  04:13        0.38
  JK-storage           STORAGE      2.36     5.80     6.60     0  02:22        5.80
  CC-storage           STORAGE      1.10     1.38     8.38     0  03:35        1.38
  XR-storage           STORAGE      2.94     6.42     4.42     0  06:46        6.42
  
  
  *******************
  Node Inflow Summary
  *******************
  
  -------------------------------------------------------------------------------------------------
                                  Maximum  Maximum                  Lateral       Total        Flow
                                  Lateral    Total  Time of Max      Inflow      Inflow     Balance
                                   Inflow   Inflow   Occurrence      Volume      Volume       Error
  Node                 Type           LPS      LPS  days hr:min    10^6 ltr    10^6 ltr     Percent
  -------------------------------------------------------------------------------------------------
  WS02001211           JUNCTION      7.35   389.52     0  04:20       0.207        8.84       0.451
  WS02001212           JUNCTION      0.00   391.67     0  04:21           0         8.8       0.275
  WS02001213           JUNCTION      0.00   393.77     0  04:21           0        8.78       0.306
  WS02003069           JUNCTION      0.32   891.26     0  04:12     0.00902        15.2       0.199
  WS02003072           JUNCTION      0.00   891.13     0  04:12           0        15.2       0.247
  WS02003073           JUNCTION      1.82   892.93     0  04:13      0.0514        15.2       0.282
  WS02003060           JUNCTION     16.53   890.94     0  04:11       0.466        15.2       0.187
  WS02003066           JUNCTION      0.00   494.94     0  04:10           0        6.05       0.056
  WS02003059           JUNCTION      0.00   397.24     0  04:20           0        8.76       0.445
  WS02003067           JUNCTION      0.00   494.89     0  04:10           0        6.06       0.123
  WS02004401           JUNCTION      0.00   532.41     0  04:04           0        6.23       0.247
  WS02004402           JUNCTION      0.00   524.45     0  04:04           0        6.22       0.242
  WS02004403           JUNCTION      0.00   523.54     0  04:04           0         6.2       0.228
  WS02004404           JUNCTION      0.16   536.94     0  04:04     0.00457        6.19       0.191
  WS02004406           JUNCTION      0.00   513.47     0  04:06           0        6.17       0.437
  WS02004409           JUNCTION      0.00   508.36     0  04:07           0        6.14       0.171
  WS02004410           JUNCTION      0.00   504.24     0  04:07           0        6.13       0.208
  WS02004411           JUNCTION      0.00   499.11     0  04:08           0        6.11       0.224
  WS02004412           JUNCTION      0.00   497.54     0  04:08           0         6.1       0.256
  WS02004413           JUNCTION      0.00   495.42     0  04:09           0        6.08       0.399
  WS02004405           JUNCTION      0.04   580.73     0  04:04     0.00107        6.18       0.233
  WS02006109           JUNCTION      1.23   530.14     0  04:03      0.0347        6.27       0.173
  WS02006110           JUNCTION      0.00   530.14     0  04:03           0        6.26       0.200
  WS02006111           JUNCTION      0.00   550.27     0  04:04           0        6.24       0.026
  WS02006112           JUNCTION     13.62   535.04     0  04:04      0.0388        6.28       0.322
  WS02006113           JUNCTION      0.00   531.25     0  04:03           0        6.24       0.064
  WS02006115           JUNCTION      0.00   542.28     0  04:04           0        6.26       0.228
  WS02006116           JUNCTION      0.00   561.66     0  04:03           0        6.24       0.180
  WS02006230           JUNCTION     10.28   507.50     0  06:54        0.29        5.02       0.107
  WS02006231           JUNCTION      0.00   497.79     0  06:53           0        4.73       0.028
  WS02006232           JUNCTION      0.00   497.70     0  06:53           0        4.74       0.169
  WS02006234           JUNCTION      0.00   495.94     0  06:53           0        4.74      -0.015
  WS02006235           JUNCTION      0.00   495.87     0  04:03           0        4.83       0.097
  WS02006238           JUNCTION      0.00   391.73     0  06:20           0        2.31       0.044
  WS02006240           JUNCTION      0.00   391.76     0  06:20           0        2.21       0.058
  WS02006242           JUNCTION      0.00   392.06     0  06:20           0        2.17       0.055
  WS02006243           JUNCTION      0.00   391.84     0  06:20           0        2.14      -0.189
  WS02006245           JUNCTION      0.00   391.96     0  06:20           0        2.14       0.348
  WS02006247           JUNCTION      0.00   392.48     0  06:20           0        2.14       0.050
  WS02006248           JUNCTION      0.00   391.99     0  06:20           0        2.14      -0.168
  WS02006249           JUNCTION      0.00   393.04     0  06:12           0        2.14       0.232
  WS02006239           JUNCTION      0.00   392.26     0  06:20           0        2.26      -0.210
  WS02006251           JUNCTION      0.08   401.12     0  06:20     0.00217        2.19      -0.023
  WS02006252           JUNCTION      0.00   400.00     0  06:10           0        1.92       0.008
  WS02006253           JUNCTION      1.96   126.10     0  04:01     0.00501        0.27       0.072
  WS02006256           JUNCTION      0.00   983.00     0  02:40           0        5.52       0.010
  WS02004138           JUNCTION      0.00   380.00     0  00:00           0        8.66       0.075
  WS02004139           JUNCTION      0.32   394.45     0  00:00     0.00905        8.67       0.522
  WS02004407           JUNCTION      0.00   509.05     0  04:07           0        6.14       0.070
  WS02006228           JUNCTION      0.00   528.92     0  04:03           0        6.24       0.120
  WS02006229           JUNCTION      0.00   529.49     0  04:03           0        6.25       0.156
  WS02006280           JUNCTION      0.00   319.49     0  02:12           0        1.24       0.005
  WS02006284           JUNCTION      0.10   319.47     0  02:12      0.0027        1.24       0.097
  WS02006287           JUNCTION      0.00   319.31     0  02:12           0        1.24       0.058
  WSF200               JUNCTION      0.00   494.98     0  04:10           0        6.05       0.049
  HS02004901           JUNCTION     16.70    16.70     0  02:07      0.0466      0.0468       3.902
  HS02004881           JUNCTION      6.91    63.43     0  02:11      0.0203       0.216       0.046
  HS02004876           JUNCTION     11.52    56.79     0  02:12       0.039       0.196       0.272
  HS02004870           JUNCTION     12.43    45.50     0  02:12      0.0384       0.158       0.067
  HS02004862           JUNCTION     10.58    33.76     0  02:12      0.0441       0.119       0.143
  HS02004856           JUNCTION      9.24    23.27     0  02:12      0.0289      0.0765       1.916
  HS02004852           JUNCTION      0.00    14.51     0  02:12           0      0.0477       0.109
  HS02004848           JUNCTION     21.78    21.78     0  02:14      0.0921      0.0921       0.047
  HS02004842           JUNCTION      0.00     7.91     0  02:22           0      0.0575      29.211
  HS02004837           JUNCTION     26.66    33.41     0  02:11       0.246        0.29       0.279
  HS02004830           JUNCTION      0.15    33.54     0  02:12     0.00423       0.281       0.441
  HS02004824           JUNCTION     24.79    58.12     0  02:15       0.121         0.4       0.134
  HS02004817           JUNCTION      0.60    58.71     0  02:15      0.0169       0.417       4.169
  HS02004807           JUNCTION     23.25    80.27     0  02:13      0.0707       0.471       0.906
  HS02004802           JUNCTION      0.00    80.75     0  02:14           0       0.466       0.879
  HS02004799           JUNCTION     18.12   203.47     0  02:10      0.0572        0.67       0.356
  HS02004792           JUNCTION     79.57   185.61     0  02:10       0.247       0.613       0.066
  HS02004788           JUNCTION     26.41   107.82     0  02:10       0.127       0.368       0.105
  HS02004785           JUNCTION      0.15    81.74     0  02:10     0.00423       0.243       0.198
  HS02004777           JUNCTION      0.03    82.04     0  02:09    0.000846       0.243       2.175
  HS02004770           JUNCTION     67.12    82.98     0  02:08       0.199       0.244       1.283
  HS02004480           JUNCTION      0.00   240.41     0  02:10           0       0.787       0.099
  HS02004479           JUNCTION      0.00    37.61     0  02:12           0       0.129       0.569
  HS02004478           JUNCTION      0.00   319.27     0  02:12           0        1.24       0.047
  YS02001745           JUNCTION    129.47   247.26     0  03:04        1.33        1.34       0.863
  YS02001748           JUNCTION      0.04   356.38     0  03:04     0.00127        1.33       1.702
  YS02001751           JUNCTION      0.01   364.45     0  02:38     0.00031         1.3       1.744
  YS02001754           JUNCTION      0.26   211.05     0  02:42     0.00733        1.28       1.967
  YS02001762           JUNCTION      0.00   198.92     0  02:39           0        1.39       1.564
  YS02001765           JUNCTION      0.00   194.67     0  02:39           0        1.39       1.785
  YS02001767           JUNCTION      0.54   192.73     0  02:39      0.0151        1.41       2.618
  YS02001770           JUNCTION    165.65   186.64     0  02:39        1.53        1.54       2.100
  YS02001774           JUNCTION      0.00    65.53     0  03:40           0       0.124      25.506
  YS02001779           JUNCTION      0.01    65.61     0  03:40    0.000141      0.0876      21.299
  YS02001882           JUNCTION      0.00    11.55     0  02:51           0      0.0109      20.974
  YS02001884           JUNCTION      0.00    15.26     0  02:04           0       0.037      16.782
  YS02001759           JUNCTION    161.81   365.51     0  02:39        1.42        2.77       0.844
  YS02001887           JUNCTION    212.15   219.30     0  02:32        1.66        1.68       0.455
  YS02001890           JUNCTION      0.00   216.96     0  02:30           0        1.65       0.509
  YS02001898           JUNCTION      0.00   220.64     0  02:46           0        1.63       0.158
  YS02001901           JUNCTION      0.00   223.46     0  02:38           0        1.63       0.370
  YS02001904           JUNCTION      0.00   226.41     0  02:38           0        1.63       0.342
  YS02001907           JUNCTION      0.00   421.82     0  02:42           0        3.54       0.637
  YS02001910           JUNCTION      0.00   194.43     0  02:50           0        1.92       0.561
  YS02001915           JUNCTION    115.70   185.09     0  02:46        1.13        1.93       0.265
  YS02001918           JUNCTION      0.00    62.74     0  02:53           0       0.801       0.180
  YS02001619           JUNCTION    112.59   112.59     0  02:46        1.12        1.12       1.091
  YS02001629           JUNCTION      0.00   197.38     0  02:42           0        1.04       2.824
  YS02001641           JUNCTION      0.00   271.47     0  03:03           0        2.25       0.962
  YS02001644           JUNCTION    123.05   580.57     0  03:39        1.28        4.68       0.577
  YS02001652           JUNCTION      0.00   208.09     0  02:40           0        1.17       2.136
  YS02001655           JUNCTION      0.15   363.48     0  02:45     0.00434         1.2       1.878
  YS02001920           JUNCTION      2.87    59.47     0  03:01      0.0809       0.803       0.299
  YS02001923           JUNCTION      0.04    56.60     0  03:01     0.00106       0.723       0.054
  YS02001926           JUNCTION      0.05    56.61     0  03:01     0.00147       0.724       0.370
  YS02001929           JUNCTION     56.57    56.57     0  03:01       0.723       0.723       0.053
  YS02001658           JUNCTION      0.00   533.16     0  02:58           0        1.26       1.585
  YS02001661           JUNCTION      0.00   391.36     0  02:57           0        1.59       0.572
  YS02001664           JUNCTION    150.77   302.65     0  03:58        1.23        1.54       0.420
  YS02001622           JUNCTION      0.00   154.33     0  02:49           0         1.1       2.980
  YS02001633           JUNCTION    125.08   269.93     0  02:56        1.32        2.31       1.411
  YS02001649           JUNCTION      0.00   571.97     0  02:40           0        3.92       0.966
  YS02001757           JUNCTION      0.00   980.72     0  02:43           0        6.77       1.385
  YS02001895           JUNCTION      0.00   216.55     0  02:38           0        1.64       0.253
  YS02001625           JUNCTION      0.00   197.68     0  02:42           0        1.07       3.801
  YS02163301           JUNCTION      0.00   145.12     0  02:56           0        1.03       2.432
  YS02163601           JUNCTION      0.11   270.20     0  02:56      0.0031        2.27       1.339
  YS02164001           JUNCTION      0.00   269.72     0  02:56           0        2.25       0.931
  YS02001647           JUNCTION      0.00   393.92     0  03:03           0        3.14       0.907
  YSB1154              JUNCTION     20.48    20.48     0  02:10      0.0694      0.0705       2.089
  YSB6556              JUNCTION      0.00    20.42     0  02:11           0      0.0714       1.777
  YSB1174              JUNCTION     18.70    18.70     0  02:06      0.0505      0.0512       2.568
  YSB1171              JUNCTION      0.00    37.52     0  02:11           0       0.128       5.190
  YS02006553           JUNCTION      0.00   411.74     0  02:42           0        3.53       0.410
  YS02006561           JUNCTION      0.00   635.67     0  02:43           0        4.99       0.001
  YS02006556           JUNCTION      0.00   410.32     0  02:42           0        3.53       0.300
  YS02006558           JUNCTION    179.58   602.15     0  02:42        1.52        5.02       0.099
  YS02001783           JUNCTION      0.00   588.01     0  02:35           0        4.99       0.034
  YS02001784           JUNCTION      1.06   585.74     0  02:38      0.0299        5.02       0.053
  YS02001786           JUNCTION      0.06   600.72     0  02:39     0.00159        5.02       0.052
  YS02001788           JUNCTION      0.07   662.82     0  02:39       0.002        5.02       0.031
  YS02001790           JUNCTION      0.15   712.32     0  02:39     0.00437        5.02       0.017
  YS02001791           JUNCTION      0.00   756.67     0  02:39           0        5.03       0.013
  YS02001793           JUNCTION      0.00   802.54     0  02:39           0        5.03      -0.023
  WSC                  OUTFALL       0.00   893.09     0  04:13           0        15.1       0.000
  JK-storage           STORAGE       0.00   803.29     0  02:39           0        5.18     -16.784
  CC-storage           STORAGE       0.00   982.39     0  02:43           0        5.84       1.123
  XR-storage           STORAGE     436.93   436.93     0  02:51        8.38        8.98      -0.000
  
  
  **********************
  Node Surcharge Summary
  **********************
  
  Surcharging occurs when water rises above the top of the highest conduit.
  ---------------------------------------------------------------------
                                               Max. Height   Min. Depth
                                   Hours       Above Crown    Below Rim
  Node                 Type      Surcharged         Meters       Meters
  ---------------------------------------------------------------------
  WS02006109           JUNCTION        1.34          0.147        1.673
  WS02006110           JUNCTION        0.03          0.010        1.840
  WS02006112           JUNCTION        0.10          0.051        1.629
  WS02006231           JUNCTION        0.17          0.550        0.980
  WS02006232           JUNCTION        1.05          0.505        0.975
  WS02006234           JUNCTION        0.45          0.606        0.634
  WS02006235           JUNCTION        0.71          0.659        0.631
  WS02006238           JUNCTION        0.80          0.704        0.726
  WS02006240           JUNCTION        0.42          0.905        0.485
  WS02006242           JUNCTION        0.57          0.820        0.000
  WS02006243           JUNCTION        0.38          0.770        0.000
  WS02006245           JUNCTION        0.34          0.614        0.236
  WS02006247           JUNCTION        0.37          0.584        0.176
  WS02006248           JUNCTION        0.26          0.380        0.000
  WS02006249           JUNCTION        0.32          0.390        0.000
  WS02006239           JUNCTION        0.52          0.730        0.560
  WS02006252           JUNCTION        0.68          0.191        0.909
  WS02006256           JUNCTION        6.44          2.050        0.000
  WS02006228           JUNCTION        1.26          0.173        2.027
  YS02001748           JUNCTION        4.67          0.219        0.971
  YS02001751           JUNCTION        4.94          0.507        0.693
  YS02001754           JUNCTION        5.34          0.735        0.415
  YS02001762           JUNCTION        5.56          1.009        0.141
  YS02001765           JUNCTION        5.54          0.960        0.140
  YS02001767           JUNCTION        5.52          0.925        0.105
  YS02001770           JUNCTION        5.51          0.900        0.020
  YS02001774           JUNCTION        5.55          0.989        0.061
  YS02001779           JUNCTION        5.28          0.680        0.000
  YS02001759           JUNCTION        5.57          1.040        0.170
  YS02001907           JUNCTION        0.15          0.030        0.920
  YS02001619           JUNCTION        4.91          0.503        0.107
  YS02001629           JUNCTION        4.93          0.460        0.010
  YS02001641           JUNCTION        5.55          0.928        0.172
  YS02001644           JUNCTION        5.55          0.920        0.000
  YS02001652           JUNCTION        5.39          0.838        0.292
  YS02001655           JUNCTION        5.00          0.812        0.388
  YS02001658           JUNCTION        4.71          0.729        0.571
  YS02001661           JUNCTION        0.02          0.100        1.290
  YS02001622           JUNCTION        4.97          0.516        0.104
  YS02001633           JUNCTION        5.53          0.906        0.154
  YS02001649           JUNCTION        5.56          1.032        0.018
  YS02001757           JUNCTION        5.62          1.147        0.063
  YS02001625           JUNCTION        5.48          0.780        0.000
  YS02163301           JUNCTION        5.52          0.868        0.162
  YS02163601           JUNCTION        5.56          0.971        0.109
  YS02164001           JUNCTION        5.53          0.907        0.193
  YS02001647           JUNCTION        5.43          0.779        0.121
  YS02006553           JUNCTION        0.43          0.045        1.145
  YS02001783           JUNCTION        0.01          0.072        1.528
  YS02001784           JUNCTION        0.06          0.361        1.129
  YS02001786           JUNCTION        0.01          0.049        1.381
  YS02001788           JUNCTION        0.01          0.148        1.332
  YS02001790           JUNCTION        0.96          0.677        0.480
  YS02001791           JUNCTION        1.15          0.870        1.050
  YS02001793           JUNCTION        1.50          0.927        1.673
  
  
  *********************
  Node Flooding Summary
  *********************
  
  Flooding refers to all water that overflows a node, whether it ponds or not.
  --------------------------------------------------------------------------
                                                             Total   Maximum
                                 Maximum   Time of Max       Flood    Ponded
                        Hours       Rate    Occurrence      Volume     Depth
  Node                 Flooded       LPS   days hr:min    10^6 ltr    Meters
  --------------------------------------------------------------------------
  WS02006242              0.01      2.02      0  06:53       0.000     0.000
  WS02006243              0.01      9.05      0  06:53       0.000     0.000
  WS02006248              0.01     11.54      0  06:53       0.000     0.000
  WS02006249              0.01      4.00      0  06:53       0.000     0.000
  WS02006256              2.23    775.67      0  06:53       2.922     0.000
  YS02001779              1.30     65.59      0  03:40       0.064     0.000
  YS02001644              2.75    580.45      0  03:39       2.669     0.000
  YS02001625              0.01      5.26      0  06:52       0.000     0.000
  JK-storage              0.60    547.51      0  02:24       0.659     0.000
  
  
  **********************
  Storage Volume Summary
  **********************
  
  --------------------------------------------------------------------------------------------------
                         Average     Avg  Evap Exfil       Maximum     Max    Time of Max    Maximum
                          Volume    Pcnt  Pcnt  Pcnt        Volume    Pcnt     Occurrence    Outflow
  Storage Unit           1000 m3    Full  Loss  Loss       1000 m3    Full    days hr:min        LPS
  --------------------------------------------------------------------------------------------------
  JK-storage               0.118      41     0     0         0.291     100       0  02:22     983.00
  CC-storage               3.052      19     0     0         3.843      24       0  03:35     400.00
  XR-storage               0.353      38     0     0         0.770      83       0  06:46     380.00
  
  
  ***********************
  Outfall Loading Summary
  ***********************
  
  ---------------------------------------------------------------------------------------------------------------------------------
                         Flow       Avg       Max       Total         Total         Total         Total         Total         Total
                         Freq      Flow      Flow      Volume           COD            SS            TN            TP         NH4-N
  Outfall Node           Pcnt       LPS       LPS    10^6 ltr            kg            kg            kg            kg            kg
  ---------------------------------------------------------------------------------------------------------------------------------
  WSC                  100.00    579.56    893.09      15.133      1973.638      3239.742       157.217        19.152        96.918
  ---------------------------------------------------------------------------------------------------------------------------------
  System               100.00    579.56    893.09      15.133      1973.638      3239.742       157.217        19.152        96.918
  
  
  ********************
  Link Flow Summary
  ********************
  
  -----------------------------------------------------------------------------
                                 Maximum  Time of Max   Maximum    Max/    Max/
                                  |Flow|   Occurrence   |Veloc|    Full    Full
  Link                 Type          LPS  days hr:min     m/sec    Flow   Depth
  -----------------------------------------------------------------------------
  WS02003066WSF200     CONDUIT    494.98     0  04:10      2.74    0.08    0.22
  WS02006287WS02006284 CONDUIT    319.37     0  02:12      1.88    0.15    0.27
  WS02006284WS02006280 CONDUIT    319.49     0  02:12      2.12    0.13    0.25
  WS02006280WS02006229 CONDUIT    319.49     0  02:12      3.41    0.07    0.18
  WS02006229WS02006228 CONDUIT    528.92     0  04:03      1.05    1.75    1.00
  WS02006256WS02006235 CONDUIT    264.10     0  01:12      3.74    2.80    1.00
  WS02006253WS02006251 CONDUIT    122.83     0  04:01      0.58    0.37    1.00
  WS02006252WS02006251 CONDUIT    401.04     0  06:20      3.19    1.47    1.00
  WS02006251WS02006249 CONDUIT    393.04     0  06:12      1.11    1.13    1.00
  WS02006249WS02006248 CONDUIT    391.99     0  06:20      1.14    2.15    1.00
  WS02006248WS02006247 CONDUIT    392.48     0  06:20      1.11    0.85    1.00
  WS02006247WS02006245 CONDUIT    391.96     0  06:20      1.08    3.11    1.00
  WS02006245WS02006243 CONDUIT    391.84     0  06:20      1.10    1.16    1.00
  WS02006243WS02006242 CONDUIT    392.06     0  06:20      1.02    0.84    1.00
  WS02006242WS02006240 CONDUIT    391.76     0  06:20      1.02    1.56    1.00
  WS02006240WS02006239 CONDUIT    392.26     0  06:20      1.02    1.23    1.00
  WS02006239WS02006238 CONDUIT    391.73     0  06:20      1.02    1.25    1.00
  WS02006238WS02006235 CONDUIT    392.09     0  06:20      1.05    0.88    1.00
  WS02006235WS02006234 CONDUIT    495.94     0  06:53      1.29    5.23    1.00
  WS02006234WS02006232 CONDUIT    497.70     0  06:53      1.29    1.01    1.00
  WS02006232WS02006231 CONDUIT    497.79     0  06:53      1.29    1.04    1.00
  WS02006231WS02006230 CONDUIT    497.22     0  06:54      1.38    7.54    1.00
  WS02006230WS02006229 CONDUIT    505.16     0  04:03      1.31   11.24    1.00
  WS02006228WS02006109 CONDUIT    528.91     0  04:03      1.05    2.31    1.00
  WS02006116WS02004401 CONDUIT    532.41     0  04:04      0.78    0.73    0.84
  WS02006115WS02006116 CONDUIT    561.66     0  04:03      0.96    0.72    0.75
  WS02006113WS02006111 CONDUIT    550.27     0  04:04      2.45    0.66    0.46
  WS02006112WS02006115 CONDUIT    542.28     0  04:04      0.76    0.32    0.87
  WS02006111WS02006112 CONDUIT    534.82     0  04:04      1.49    0.25    0.67
  WS02006110WS02006113 CONDUIT    531.25     0  04:03      1.26    0.48    0.78
  WS02006109WS02006110 CONDUIT    530.14     0  04:03      1.05    1.02    1.00
  WS02004411WS02004412 CONDUIT    497.54     0  04:08      0.90    0.71    0.67
  WS02004401WS02004402 CONDUIT    524.45     0  04:04      0.77    0.63    0.86
  WS02004413WS02003067 CONDUIT    494.89     0  04:10      1.06    0.21    0.57
  WS02004412WS02004413 CONDUIT    495.42     0  04:09      0.78    0.33    0.75
  WS02004410WS02004411 CONDUIT    499.11     0  04:08      0.93    0.68    0.66
  WS02004409WS02004410 CONDUIT    504.24     0  04:07      0.97    0.65    0.64
  WS02004407WS02004409 CONDUIT    508.36     0  04:07      1.49    0.18    0.46
  WS02004406WS02004407 CONDUIT    509.05     0  04:07      1.01    0.23    0.61
  WS02004405WS02004406 CONDUIT    513.47     0  04:06      0.67    1.01    0.94
  WS02004404WS02004405 CONDUIT    580.69     0  04:04      0.76    5.69    0.96
  WS02004403WS02004404 CONDUIT    536.78     0  04:04      0.71    0.39    0.94
  WS02004402WS02004403 CONDUIT    523.54     0  04:04      0.80    0.75    0.89
  WS02004139WS02001211 CONDUIT    382.17     0  04:20      0.90    0.48    0.59
  WS02004138WS02004139 CONDUIT    394.13     0  00:00      3.62    0.08    0.44
  WS02003067WS02003066 CONDUIT    494.94     0  04:10      1.15    0.16    0.40
  WS02001213WS02003059 CONDUIT    397.24     0  04:20      0.89    0.66    0.76
  WS02001212WS02001213 CONDUIT    393.77     0  04:21      1.32    0.61    0.46
  WS02001211WS02001212 CONDUIT    391.67     0  04:21      0.78    0.30    0.64
  WS02003072WS02003073 CONDUIT    891.11     0  04:13      1.70    1.92    0.47
  WS02003069WS02003072 CONDUIT    891.13     0  04:12      1.60    0.43    0.50
  WS02003060WS02003069 CONDUIT    890.94     0  04:12      1.84    0.35    0.44
  WS02003059WS02003060 CONDUIT    402.13     0  04:21      0.95    0.26    0.65
  HS02004901HS02004770 CONDUIT     16.01     0  02:09      0.06    0.06    0.38
  HS02004876HS02004881 CONDUIT     56.82     0  02:11      0.82    0.60    0.10
  HS02004870HS02004876 CONDUIT     45.47     0  02:12      0.56    0.03    0.12
  HS02004842HS02004848 CONDUIT      7.91     0  02:22      0.04    0.00    0.29
  HS02004837HS02004842 CONDUIT      8.22     0  02:23      0.42    0.00    0.30
  HS02004830HS02004837 CONDUIT     33.39     0  02:12      0.51    0.03    0.09
  HS02004824HS02004830 CONDUIT     33.53     0  02:13      0.55    0.04    0.09
  HS02004817HS02004824 CONDUIT     58.11     0  02:15      0.19    0.03    0.44
  HS02004770HS02004777 CONDUIT     82.01     0  02:09      0.30    0.15    0.39
  HS02004799HS02004480 CONDUIT    203.21     0  02:10      0.74    0.26    0.39
  HS02004792HS02004799 CONDUIT    185.50     0  02:10      0.84    0.11    0.31
  HS02004788HS02004792 CONDUIT    107.74     0  02:11      0.97    0.07    0.16
  HS02004785HS02004788 CONDUIT     81.66     0  02:11      0.63    0.62    0.18
  HS02004777HS02004785 CONDUIT     81.59     0  02:10      0.36    0.10    0.32
  HS02004480HS02004478 CONDUIT    240.37     0  02:11      1.15    1.01    0.30
  HS02004479HS02004480 CONDUIT     37.86     0  02:12      0.17    0.04    0.38
  HS02004862HS02004870 CONDUIT     33.72     0  02:13      0.57    0.04    0.08
  HS02004848HS02004852 CONDUIT     14.51     0  02:12      0.39    0.02    0.05
  HS02004856HS02004862 CONDUIT     23.22     0  02:13      0.42    0.02    0.08
  HS02004852HS02004856 CONDUIT     14.47     0  02:13      0.19    0.02    0.11
  HS02004802HS02004478 CONDUIT     81.38     0  02:15      0.38    0.07    0.32
  HS02004478WS02006287 CONDUIT    319.31     0  02:12      1.58    0.09    0.22
  HS02004817HS02004807 CONDUIT     59.55     0  02:16      0.15    0.04    0.58
  HS02004807HS02004802 CONDUIT     80.75     0  02:14      0.32    0.15    0.36
  YS02001759YS02001757 CONDUIT    369.00     0  02:39      0.47    0.26    1.00
  YS02001762YS02001759 CONDUIT    203.78     0  02:39      0.26    0.23    1.00
  YS02001765YS02001762 CONDUIT    198.92     0  02:39      0.25    0.19    1.00
  YS02001770YS02001767 CONDUIT    192.20     0  02:39      0.30    0.76    1.00
  YS02001774YS02001770 CONDUIT     65.53     0  03:40      0.14    0.04    1.00
  YS02001779YS02001774 CONDUIT     65.61     0  03:40      0.08    0.03    1.00
  YS02001649YS02001757 CONDUIT    573.34     0  02:40      0.73    0.35    1.00
  YS02001767YS02001765 CONDUIT    194.67     0  02:39      0.27    0.24    1.00
  YS02006561YS02001783 CONDUIT    588.01     0  02:35      2.09    0.30    0.68
  YS02001783YS02001784 CONDUIT    584.68     0  02:38      1.52    0.81    1.00
  YS02001784YS02001785 CONDUIT    600.67     0  02:39      1.63    1.40    1.00
  YS02001788YS02001790 CONDUIT    712.17     0  02:39      2.16    0.52    1.00
  YS02001790YS02001791 CONDUIT    756.67     0  02:39      2.57    0.82    1.00
  YS02001791YS02001793 CONDUIT    802.54     0  02:39      5.28    0.34    1.00
  YS02001910YS02001907 CONDUIT    196.18     0  02:46      0.49    0.11    0.90
  YS02001786YS02001788 CONDUIT    662.75     0  02:39      2.08    1.28    1.00
  YS02001915YS02001910 CONDUIT    194.43     0  02:50      0.45    0.10    0.70
  YS02001918YS02001915 CONDUIT     69.48     0  02:46      0.44    0.04    0.41
  YS02001923YS02001920 CONDUIT     56.60     0  03:01      0.55    0.03    0.21
  YS02001926YS02001923 CONDUIT     56.56     0  03:01      0.62    0.08    0.17
  YS02001929YS02001926 CONDUIT     56.56     0  03:01      0.67    0.03    0.16
  YS02001920YS02001918 CONDUIT     62.74     0  02:53      0.55    0.06    0.27
  YS02001629YS02163301 CONDUIT    145.12     0  02:56      0.18    0.18    1.00
  YS02001619YS02001622 CONDUIT    154.33     0  02:49      0.71    0.23    1.00
  YS02001622YS02001625 CONDUIT    197.68     0  02:42      0.30    0.11    1.00
  YS02001625YS02001629 CONDUIT    197.38     0  02:42      0.29    0.09    1.00
  YS02163301YS02001633 CONDUIT    146.11     0  03:03      0.19    0.14    1.00
  YS02163601YS02164001 CONDUIT    269.72     0  02:56      0.34    0.24    1.00
  YS02164001YS02001641 CONDUIT    271.47     0  03:03      0.35    0.37    1.00
  YS02001641YS02001644 CONDUIT    273.52     0  03:03      0.35    0.88    1.00
  YS02001647YS02001649 CONDUIT    395.54     0  03:03      0.50    0.21    1.00
  YS02006553YS02006556 CONDUIT    410.32     0  02:42      0.53    0.35    0.98
  YS02006556YS02006558 CONDUIT    425.48     0  02:54      0.54    0.34    1.00
  YSB6556YSB1171       CONDUIT     20.75     0  02:13      0.08    0.02    0.65
  YS02001907YS02006553 CONDUIT    411.74     0  02:42      0.46    0.48    1.00
  YS02006558YS02006561 CONDUIT    635.67     0  02:43      3.06    1.40    0.72
  YS02001633YS02163601 CONDUIT    270.09     0  02:56      0.34    0.28    1.00
  YS02001644YS02001647 CONDUIT    393.92     0  03:03      0.50    0.23    1.00
  YS02001745YS02001748 CONDUIT    356.34     0  03:04      1.57    0.14    0.93
  YS02001748YS02001751 CONDUIT    364.44     0  02:38      1.19    0.18    1.00
  YS02001751YS02001754 CONDUIT    210.79     0  02:42      0.91    0.10    1.00
  YS02001754YS02001757 CONDUIT    210.54     0  02:42      0.33    0.08    1.00
  YS02001882YS02001884 CONDUIT     11.55     0  02:51      0.08    0.01    0.63
  YS02001884YS02001887 CONDUIT     16.56     0  02:56      0.05    0.02    0.73
  YS02001890YS02001895 CONDUIT    216.55     0  02:38      0.38    0.10    0.69
  YS02001895YS02001898 CONDUIT    220.64     0  02:46      0.50    0.38    0.56
  YS02001898YS02001901 CONDUIT    223.46     0  02:38      0.43    0.14    0.64
  YS02001901YS02001904 CONDUIT    226.41     0  02:38      0.40    0.35    0.69
  YS02001904YS02001907 CONDUIT    231.34     0  02:35      0.33    0.08    0.84
  YS02001887YS02001890 CONDUIT    216.96     0  02:30      0.34    0.37    0.78
  YS02001652YS02001649 CONDUIT    211.56     0  02:40      0.39    0.10    1.00
  YS02001655YS02001652 CONDUIT    208.09     0  02:40      0.94    0.10    1.00
  YS02001658YS02001655 CONDUIT    363.32     0  02:45      1.38    0.15    1.00
  YS02001661YS02001658 CONDUIT    533.16     0  02:58      1.65    0.21    1.00
  YS02001664YS02001661 CONDUIT    382.70     0  03:17      1.43    0.12    0.71
  YSB1154YSB6556       CONDUIT     20.42     0  02:11      0.19    0.04    0.54
  YSB1174YSB1171       CONDUIT     17.80     0  02:07      0.07    0.03    0.66
  YSB1171HS02004479    CONDUIT     37.61     0  02:12      0.54    0.03    0.51
  HS02004881HS02006253 CONDUIT     63.43     0  02:11      2.01    0.01    0.46
  YS02001793JiankangQianchi CONDUIT    803.29     0  02:39     16.13    0.06    1.00
  YS02001757CaochengTiaoxuchi CONDUIT    982.39     0  02:43      1.95    0.43    1.00
  WSF200WS02003060     CONDUIT    495.13     0  04:10      1.98    0.11    0.33
  1                    CONDUIT    893.09     0  04:13      3.23    0.31    0.38
  CC-Pump-1            PUMP       200.00     0  04:50              1.00
  CC-Pump-2            PUMP       200.00     0  06:10              1.00
  JK-Pump-1            PUMP       300.00     0  02:40              1.00
  JK-Pump-2            PUMP       683.00     0  02:40              1.00
  XR-Pump-1            PUMP        95.00     0  00:00              1.00
  XR-Pump-2            PUMP        95.00     0  00:00              1.00
  XR-Pump-3            PUMP        95.00     0  00:00              1.00
  XR-Pump-4            PUMP        95.00     0  00:00              1.00
  
  
  ***************************
  Flow Classification Summary
  ***************************
  
  -------------------------------------------------------------------------------------
                      Adjusted    ---------- Fraction of Time in Flow Class ---------- 
                       /Actual         Up    Down  Sub   Sup   Up    Down  Norm  Inlet 
  Conduit               Length    Dry  Dry   Dry   Crit  Crit  Crit  Crit  Ltd   Ctrl  
  -------------------------------------------------------------------------------------
  WS02003066WSF200        1.00   0.01  0.06  0.00  0.00  0.93  0.00  0.00  0.71  0.00
  WS02006287WS02006284    1.00   0.03  0.03  0.00  0.73  0.21  0.00  0.00  0.76  0.00
  WS02006284WS02006280    1.00   0.04  0.00  0.00  0.00  0.00  0.00  0.96  0.00  0.00
  WS02006280WS02006229    1.00   0.04  0.00  0.00  0.00  0.00  0.00  0.96  0.00  0.00
  WS02006229WS02006228    1.00   0.00  0.00  0.00  1.00  0.00  0.00  0.00  0.00  0.00
  WS02006256WS02006235    1.00   0.04  0.00  0.00  0.96  0.00  0.00  0.00  0.00  0.00
  WS02006253WS02006251    1.00   0.01  0.02  0.00  0.96  0.00  0.01  0.00  0.00  0.00
  WS02006252WS02006251    1.00   0.24  0.00  0.00  0.00  0.00  0.76  0.00  0.00  0.00
  WS02006251WS02006249    1.00   0.00  0.00  0.00  1.00  0.00  0.00  0.00  0.39  0.00
  WS02006249WS02006248    1.00   0.00  0.01  0.00  0.82  0.00  0.18  0.00  0.00  0.00
  WS02006248WS02006247    1.00   0.01  0.00  0.00  0.98  0.00  0.00  0.02  0.27  0.00
  WS02006247WS02006245    1.00   0.01  0.00  0.00  0.95  0.00  0.00  0.04  0.00  0.00
  WS02006245WS02006243    1.00   0.01  0.00  0.00  0.90  0.00  0.00  0.09  0.01  0.00
  WS02006243WS02006242    1.00   0.01  0.00  0.00  0.96  0.00  0.00  0.03  0.26  0.00
  WS02006242WS02006240    1.00   0.01  0.03  0.00  0.96  0.00  0.00  0.00  0.00  0.00
  WS02006240WS02006239    1.00   0.04  0.00  0.00  0.92  0.00  0.00  0.03  0.01  0.00
  WS02006239WS02006238    1.00   0.04  0.00  0.00  0.96  0.00  0.00  0.00  0.04  0.00
  WS02006238WS02006235    1.00   0.04  0.00  0.00  0.96  0.00  0.00  0.00  0.00  0.00
  WS02006235WS02006234    1.00   0.04  0.00  0.00  0.94  0.00  0.02  0.00  0.00  0.00
  WS02006234WS02006232    1.00   0.04  0.00  0.00  0.96  0.00  0.00  0.00  0.01  0.00
  WS02006232WS02006231    1.00   0.04  0.00  0.00  0.95  0.00  0.00  0.00  0.00  0.00
  WS02006231WS02006230    1.00   0.04  0.00  0.00  0.46  0.00  0.49  0.00  0.00  0.00
  WS02006230WS02006229    1.00   0.00  0.00  0.00  0.99  0.00  0.00  0.01  0.00  0.00
  WS02006228WS02006109    1.00   0.00  0.00  0.00  1.00  0.00  0.00  0.00  0.01  0.00
  WS02006116WS02004401    1.00   0.03  0.00  0.00  0.97  0.00  0.00  0.00  0.00  0.00
  WS02006115WS02006116    1.00   0.03  0.00  0.00  0.95  0.00  0.00  0.02  0.00  0.00
  WS02006113WS02006111    1.00   0.02  0.00  0.00  0.01  0.97  0.00  0.00  0.23  0.00
  WS02006112WS02006115    1.00   0.02  0.01  0.00  0.97  0.00  0.00  0.00  0.00  0.00
  WS02006111WS02006112    1.00   0.02  0.00  0.00  0.98  0.00  0.00  0.00  0.92  0.00
  WS02006110WS02006113    1.00   0.00  0.01  0.00  0.98  0.00  0.00  0.00  0.00  0.00
  WS02006109WS02006110    1.00   0.00  0.00  0.00  0.99  0.00  0.00  0.00  0.00  0.00
  WS02004411WS02004412    1.00   0.06  0.00  0.00  0.94  0.00  0.00  0.00  0.00  0.00
  WS02004401WS02004402    1.00   0.03  0.00  0.00  0.97  0.00  0.00  0.00  0.03  0.00
  WS02004413WS02003067    1.00   0.06  0.01  0.00  0.00  0.00  0.93  0.00  0.00  0.00
  WS02004412WS02004413    1.00   0.06  0.00  0.00  0.94  0.00  0.00  0.00  0.01  0.00
  WS02004410WS02004411    1.00   0.06  0.00  0.00  0.94  0.00  0.00  0.00  0.00  0.00
  WS02004409WS02004410    1.00   0.06  0.00  0.00  0.94  0.00  0.00  0.00  0.00  0.00
  WS02004407WS02004409    1.00   0.06  0.00  0.00  0.94  0.00  0.00  0.00  0.81  0.00
  WS02004406WS02004407    1.00   0.00  0.06  0.00  0.94  0.00  0.00  0.00  0.00  0.00
  WS02004405WS02004406    1.00   0.00  0.00  0.00  1.00  0.00  0.00  0.00  0.04  0.00
  WS02004404WS02004405    1.00   0.00  0.00  0.00  1.00  0.00  0.00  0.00  0.02  0.00
  WS02004403WS02004404    1.00   0.00  0.03  0.00  0.97  0.00  0.00  0.00  0.04  0.00
  WS02004402WS02004403    1.00   0.03  0.00  0.00  0.97  0.00  0.00  0.00  0.00  0.00
  WS02004139WS02001211    1.00   0.00  0.00  0.00  1.00  0.00  0.00  0.00  0.00  0.00
  WS02004138WS02004139    1.00   0.00  0.00  0.00  1.00  0.00  0.00  0.00  1.00  0.00
  WS02003067WS02003066    1.00   0.07  0.01  0.00  0.93  0.00  0.00  0.00  0.00  0.00
  WS02001213WS02003059    1.00   0.00  0.00  0.00  1.00  0.00  0.00  0.00  0.00  0.00
  WS02001212WS02001213    1.00   0.00  0.00  0.00  0.78  0.00  0.22  0.00  0.00  0.00
  WS02001211WS02001212    1.00   0.00  0.00  0.00  1.00  0.00  0.00  0.00  0.00  0.00
  WS02003072WS02003073    1.00   0.00  0.00  0.00  0.00  0.00  0.00  1.00  0.00  0.00
  WS02003069WS02003072    1.00   0.00  0.00  0.00  1.00  0.00  0.00  0.00  0.20  0.00
  WS02003060WS02003069    1.00   0.00  0.00  0.00  0.99  0.01  0.00  0.00  0.13  0.00
  WS02003059WS02003060    1.00   0.00  0.00  0.00  1.00  0.00  0.00  0.00  0.00  0.00
  HS02004901HS02004770    1.00   0.04  0.00  0.00  0.96  0.00  0.00  0.00  0.01  0.00
  HS02004876HS02004881    1.00   0.01  0.00  0.00  0.99  0.01  0.00  0.00  0.00  0.00
  HS02004870HS02004876    1.00   0.00  0.00  0.00  1.00  0.00  0.00  0.00  0.95  0.00
  HS02004842HS02004848    1.00   0.00  0.04  0.00  0.96  0.00  0.00  0.00  0.64  0.00
  HS02004837HS02004842    1.00   0.00  0.00  0.00  1.00  0.00  0.00  0.00  0.11  0.00
  HS02004830HS02004837    1.00   0.00  0.00  0.00  1.00  0.00  0.00  0.00  0.99  0.00
  HS02004824HS02004830    1.00   0.00  0.00  0.00  1.00  0.00  0.00  0.00  0.00  0.00
  HS02004817HS02004824    1.00   0.00  0.00  0.00  1.00  0.00  0.00  0.00  1.00  0.00
  HS02004770HS02004777    1.00   0.00  0.04  0.00  0.96  0.00  0.00  0.00  0.05  0.00
  HS02004799HS02004480    1.00   0.00  0.01  0.00  0.94  0.00  0.05  0.00  0.00  0.00
  HS02004792HS02004799    1.00   0.00  0.00  0.00  1.00  0.00  0.00  0.00  0.98  0.00
  HS02004788HS02004792    1.00   0.00  0.00  0.00  1.00  0.00  0.00  0.00  0.98  0.00
  HS02004785HS02004788    1.00   0.00  0.00  0.00  1.00  0.00  0.00  0.00  0.00  0.00
  HS02004777HS02004785    1.00   0.00  0.00  0.00  1.00  0.00  0.00  0.00  0.17  0.00
  HS02004480HS02004478    1.00   0.04  0.00  0.00  0.78  0.00  0.00  0.18  0.00  0.00
  HS02004479HS02004480    1.00   0.01  0.00  0.00  0.99  0.00  0.00  0.00  0.14  0.00
  HS02004862HS02004870    1.00   0.00  0.00  0.00  1.00  0.00  0.00  0.00  0.05  0.00
  HS02004848HS02004852    1.00   0.04  0.00  0.00  0.96  0.00  0.00  0.00  0.72  0.00
  HS02004856HS02004862    1.00   0.00  0.07  0.00  0.93  0.00  0.00  0.00  0.78  0.00
  HS02004852HS02004856    1.00   0.04  0.01  0.00  0.95  0.00  0.00  0.00  0.84  0.00
  HS02004802HS02004478    1.00   0.04  0.01  0.00  0.95  0.00  0.00  0.00  0.01  0.00
  HS02004478WS02006287    1.00   0.06  0.00  0.00  0.85  0.09  0.00  0.00  0.73  0.00
  HS02004817HS02004807    1.00   0.00  0.04  0.00  0.96  0.00  0.00  0.00  0.00  0.00
  HS02004807HS02004802    1.00   0.04  0.00  0.00  0.96  0.00  0.00  0.00  0.01  0.00
  YS02001759YS02001757    1.00   0.00  0.00  0.00  1.00  0.00  0.00  0.00  0.18  0.00
  YS02001762YS02001759    1.00   0.00  0.00  0.00  1.00  0.00  0.00  0.00  0.04  0.00
  YS02001765YS02001762    1.00   0.00  0.00  0.00  1.00  0.00  0.00  0.00  0.19  0.00
  YS02001770YS02001767    1.00   0.00  0.00  0.00  1.00  0.00  0.00  0.00  0.00  0.00
  YS02001774YS02001770    1.00   0.00  0.05  0.00  0.95  0.00  0.00  0.00  0.05  0.00
  YS02001779YS02001774    1.00   0.00  0.00  0.00  1.00  0.00  0.00  0.00  0.24  0.00
  YS02001649YS02001757    1.00   0.00  0.00  0.00  1.00  0.00  0.00  0.00  0.18  0.00
  YS02001767YS02001765    1.00   0.00  0.00  0.00  1.00  0.00  0.00  0.00  0.01  0.00
  YS02006561YS02001783    1.00   0.07  0.00  0.00  0.14  0.79  0.00  0.00  0.64  0.00
  YS02001783YS02001784    1.00   0.00  0.07  0.00  0.93  0.00  0.00  0.00  0.01  0.00
  YS02001784YS02001785    1.00   0.00  0.00  0.00  1.00  0.00  0.00  0.00  0.23  0.00
  YS02001788YS02001790    1.00   0.00  0.00  0.00  0.28  0.72  0.00  0.00  0.59  0.00
  YS02001790YS02001791    1.00   0.00  0.00  0.00  0.24  0.76  0.00  0.00  0.49  0.00
  YS02001791YS02001793    1.00   0.00  0.00  0.00  0.29  0.71  0.00  0.00  0.04  0.00
  YS02001910YS02001907    1.00   0.00  0.00  0.00  0.99  0.00  0.00  0.01  0.13  0.00
  YS02001786YS02001788    1.00   0.00  0.00  0.00  0.24  0.76  0.00  0.00  0.00  0.00
  YS02001915YS02001910    1.00   0.00  0.00  0.00  0.99  0.01  0.00  0.00  0.21  0.00
  YS02001918YS02001915    1.00   0.00  0.00  0.00  0.99  0.00  0.00  0.00  0.67  0.00
  YS02001923YS02001920    1.00   0.00  0.00  0.00  1.00  0.00  0.00  0.00  1.00  0.00
  YS02001926YS02001923    1.00   0.00  0.02  0.00  0.00  0.00  0.98  0.00  0.00  0.00
  YS02001929YS02001926    1.00   0.00  0.04  0.00  0.96  0.00  0.00  0.00  0.87  0.00
  YS02001920YS02001918    1.00   0.00  0.00  0.00  1.00  0.00  0.00  0.00  0.00  0.00
  YS02001629YS02163301    1.00   0.06  0.00  0.00  0.93  0.00  0.00  0.00  0.00  0.00
  YS02001619YS02001622    1.00   0.04  0.00  0.00  0.96  0.00  0.00  0.00  0.00  0.00
  YS02001622YS02001625    1.00   0.04  0.00  0.00  0.96  0.00  0.00  0.00  0.10  0.00
  YS02001625YS02001629    1.00   0.04  0.04  0.00  0.90  0.00  0.02  0.00  0.00  0.00
  YS02163301YS02001633    1.00   0.00  0.06  0.00  0.94  0.00  0.00  0.00  0.00  0.00
  YS02163601YS02164001    1.00   0.00  0.02  0.00  0.98  0.00  0.00  0.00  0.00  0.00
  YS02164001YS02001641    1.00   0.00  0.02  0.00  0.98  0.00  0.00  0.00  0.07  0.00
  YS02001641YS02001644    1.00   0.00  0.00  0.00  1.00  0.00  0.00  0.00  0.00  0.00
  YS02001647YS02001649    1.00   0.00  0.07  0.00  0.93  0.00  0.00  0.00  0.01  0.00
  YS02006553YS02006556    1.00   0.00  0.00  0.00  1.00  0.00  0.00  0.00  0.03  0.00
  YS02006556YS02006558    1.00   0.00  0.00  0.00  1.00  0.00  0.00  0.00  0.00  0.00
  YSB6556YSB1171          1.00   0.01  0.02  0.00  0.96  0.00  0.00  0.00  0.00  0.00
  YS02001907YS02006553    1.00   0.00  0.01  0.00  0.99  0.00  0.00  0.00  0.00  0.00
  YS02006558YS02006561    1.00   0.07  0.00  0.00  0.00  0.93  0.00  0.00  0.62  0.00
  YS02001633YS02163601    1.00   0.00  0.00  0.00  1.00  0.00  0.00  0.00  0.18  0.00
  YS02001644YS02001647    1.00   0.00  0.07  0.00  0.93  0.00  0.00  0.00  0.00  0.00
  YS02001745YS02001748    1.00   0.00  0.00  0.00  0.89  0.00  0.00  0.11  0.04  0.00
  YS02001748YS02001751    1.00   0.00  0.00  0.00  0.96  0.04  0.00  0.00  0.17  0.00
  YS02001751YS02001754    1.00   0.00  0.00  0.00  0.92  0.00  0.00  0.08  0.02  0.00
  YS02001754YS02001757    1.00   0.00  0.00  0.00  1.00  0.00  0.00  0.00  0.23  0.00
  YS02001882YS02001884    1.00   0.06  0.00  0.00  0.94  0.00  0.00  0.00  0.00  0.00
  YS02001884YS02001887    1.00   0.02  0.02  0.00  0.97  0.00  0.00  0.00  0.00  0.00
  YS02001890YS02001895    1.00   0.00  0.06  0.00  0.94  0.00  0.00  0.00  0.00  0.00
  YS02001895YS02001898    1.00   0.06  0.00  0.00  0.92  0.00  0.01  0.00  0.00  0.00
  YS02001898YS02001901    1.00   0.06  0.00  0.00  0.93  0.00  0.00  0.00  0.02  0.00
  YS02001901YS02001904    1.00   0.06  0.00  0.00  0.94  0.00  0.00  0.00  0.00  0.00
  YS02001904YS02001907    1.00   0.00  0.06  0.00  0.94  0.00  0.00  0.00  0.00  0.00
  YS02001887YS02001890    1.00   0.00  0.00  0.00  0.99  0.00  0.01  0.00  0.00  0.00
  YS02001652YS02001649    1.00   0.00  0.00  0.00  1.00  0.00  0.00  0.00  0.22  0.00
  YS02001655YS02001652    1.00   0.00  0.00  0.00  0.92  0.00  0.00  0.08  0.02  0.00
  YS02001658YS02001655    1.00   0.00  0.05  0.00  0.91  0.04  0.00  0.00  0.08  0.00
  YS02001661YS02001658    1.00   0.05  0.00  0.00  0.89  0.06  0.00  0.00  0.04  0.00
  YS02001664YS02001661    1.00   0.04  0.00  0.00  0.91  0.06  0.00  0.00  0.26  0.00
  YSB1154YSB6556          1.00   0.04  0.00  0.00  0.96  0.00  0.00  0.00  0.02  0.00
  YSB1174YSB1171          1.00   0.01  0.01  0.00  0.97  0.00  0.00  0.00  0.00  0.00
  YSB1171HS02004479       1.00   0.01  0.00  0.00  0.98  0.00  0.00  0.00  0.13  0.00
  HS02004881HS02006253    1.00   0.02  0.00  0.00  0.43  0.02  0.00  0.54  0.24  0.00
  YS02001793JiankangQianchi    1.00   0.00  0.00  0.00  0.61  0.39  0.00  0.00  0.46  0.00
  YS02001757CaochengTiaoxuchi    1.00   0.00  0.09  0.00  0.91  0.00  0.00  0.00  0.00  0.00
  WSF200WS02003060        1.00   0.00  0.01  0.00  0.91  0.08  0.00  0.00  0.62  0.00
  1                       1.00   0.00  0.00  0.00  0.00  1.00  0.00  0.00  0.47  0.00
  
  
  *************************
  Conduit Surcharge Summary
  *************************
  
  ----------------------------------------------------------------------------
                                                           Hours        Hours 
                         --------- Hours Full --------   Above Full   Capacity
  Conduit                Both Ends  Upstream  Dnstream   Normal Flow   Limited
  ----------------------------------------------------------------------------
  WS02006229WS02006228        1.26      1.43      1.26      2.89         1.26
  WS02006256WS02006235        4.82      4.83      6.44      3.29         0.01
  WS02006253WS02006251        0.28      0.28      0.33      0.01         0.02
  WS02006252WS02006251        0.35      0.35      0.68      0.59         0.01
  WS02006251WS02006249        0.29      0.30      0.32      0.29         0.11
  WS02006249WS02006248        0.26      0.26      0.32      1.19         0.01
  WS02006248WS02006247        0.30      0.30      0.37      0.01         0.01
  WS02006247WS02006245        0.34      0.39      0.34      1.94         0.34
  WS02006245WS02006243        0.35      0.37      0.38      0.24         0.10
  WS02006243WS02006242        0.41      0.41      0.57      0.01         0.01
  WS02006242WS02006240        0.42      0.42      0.72      0.61         0.01
  WS02006240WS02006239        0.43      0.45      0.52      0.27         0.09
  WS02006239WS02006238        0.71      0.75      0.80      0.31         0.15
  WS02006238WS02006235        0.76      0.76      1.00      0.01         0.01
  WS02006235WS02006234        0.45      0.45      0.71      4.45         0.01
  WS02006234WS02006232        0.56      0.56      1.05      0.01         0.05
  WS02006232WS02006231        0.17      0.17      1.05      0.13         0.01
  WS02006231WS02006230        0.01      0.01      0.20      4.98         0.01
  WS02006230WS02006229        2.16      2.49      2.16      5.57         2.16
  WS02006228WS02006109        1.34      1.77      1.34      3.84         1.34
  WS02006112WS02006115        0.01      0.01      0.10      0.01         0.01
  WS02006111WS02006112        0.01      0.01      3.26      0.01         0.01
  WS02006110WS02006113        0.01      0.01      1.60      0.01         0.01
  WS02006109WS02006110        0.03      0.03      1.77      0.04         0.01
  WS02004405WS02004406        0.01      0.01      0.01      0.02         0.01
  WS02004404WS02004405        0.01      0.01      0.01      5.53         0.01
  WS02003072WS02003073        0.01      0.01      0.01      4.54         0.01
  HS02004480HS02004478        0.01      0.01      0.01      0.06         0.01
  YS02001759YS02001757        5.57      5.57      5.62      0.01         0.01
  YS02001762YS02001759        5.56      5.56      5.57      0.01         0.01
  YS02001765YS02001762        5.54      5.54      5.56      0.01         0.01
  YS02001770YS02001767        5.52      5.52      5.52      0.01         0.62
  YS02001774YS02001770        5.51      5.51      5.55      0.01         0.01
  YS02001779YS02001774        5.28      5.28      5.55      0.01         0.01
  YS02001649YS02001757        5.56      5.56      5.62      0.01         0.01
  YS02001767YS02001765        5.52      5.52      5.54      0.01         0.01
  YS02006561YS02001783        0.01      0.01      0.01      0.01         0.01
  YS02001783YS02001784        0.01      0.01      0.06      0.01         0.01
  YS02001784YS02001785        0.01      0.06      0.01      1.07         0.01
  YS02001788YS02001790        0.01      0.01      0.96      0.01         0.01
  YS02001790YS02001791        0.95      0.95      1.15      0.01         0.01
  YS02001791YS02001793        1.15      1.15      1.63      0.01         0.01
  YS02001910YS02001907        0.01      0.01      0.15      0.01         0.01
  YS02001786YS02001788        0.01      0.01      0.01      0.66         0.01
  YS02001629YS02163301        5.51      5.51      5.52      0.01         0.01
  YS02001619YS02001622        4.91      4.91      4.97      0.01         0.01
  YS02001622YS02001625        4.97      4.97      5.48      0.01         0.01
  YS02001625YS02001629        4.93      4.93      5.48      0.01         0.01
  YS02163301YS02001633        5.52      5.52      5.54      0.01         0.01
  YS02163601YS02164001        5.53      5.53      5.56      0.01         0.01
  YS02164001YS02001641        5.53      5.53      5.55      0.01         0.01
  YS02001641YS02001644        5.55      5.55      5.55      0.01         0.78
  YS02001647YS02001649        5.43      5.43      5.56      0.01         0.01
  YS02006553YS02006556        0.01      0.01      0.43      0.01         0.01
  YS02006556YS02006558        0.01      0.01      0.61      0.01         0.01
  YS02001907YS02006553        1.12      1.12      1.31      0.01         0.01
  YS02006558YS02006561        0.01      0.01      0.01      0.94         0.01
  YS02001633YS02163601        5.53      5.53      5.56      0.01         0.01
  YS02001644YS02001647        5.43      5.43      5.55      0.01         0.01
  YS02001745YS02001748        0.01      0.01      4.67      0.01         0.01
  YS02001748YS02001751        4.75      4.75      4.94      0.01         0.01
  YS02001751YS02001754        4.94      4.94      5.34      0.01         0.01
  YS02001754YS02001757        5.42      5.42      5.62      0.01         0.01
  YS02001904YS02001907        0.01      0.01      0.47      0.01         0.01
  YS02001652YS02001649        5.46      5.46      5.56      0.01         0.01
  YS02001655YS02001652        5.00      5.00      5.39      0.01         0.01
  YS02001658YS02001655        4.70      4.70      5.00      0.01         0.01
  YS02001661YS02001658        0.02      0.02      4.70      0.01         0.01
  YS02001664YS02001661        0.01      0.01      0.42      0.01         0.01
  YS02001793JiankangQianchi        1.50      1.50      4.50      0.01         0.01
  YS02001757CaochengTiaoxuchi        4.72      4.72      5.62      0.01         0.01
  
  
  ***************
  Pumping Summary
  ***************
  
  ---------------------------------------------------------------------------------------------------------
                                                  Min       Avg       Max     Total     Power    % Time Off
                        Percent   Number of      Flow      Flow      Flow    Volume     Usage    Pump Curve
  Pump                 Utilized   Start-Ups       LPS       LPS       LPS  10^6 ltr     Kw-hr    Low   High
  ---------------------------------------------------------------------------------------------------------
  CC-Pump-1               42.55           4      0.00    131.79    200.00     1.440      1.15    0.0    0.0
  CC-Pump-2               14.89           3      0.00    108.88    200.00     0.480      0.57    0.0    0.0
  JK-Pump-1               46.81           5      0.00    178.28    300.00     2.146     37.99    0.0    0.0
  JK-Pump-2               44.68           5      0.00    287.56    683.00     3.378     58.72    0.0   95.9
  XR-Pump-1               93.61           3      0.00     91.71     95.00     2.394     43.91    0.0    0.0
  XR-Pump-2               89.36           4      0.00     87.14     95.00     2.166     39.60    0.0    0.0
  XR-Pump-3               85.10           4      0.00     88.12     95.00     2.052     37.13    0.0    0.0
  XR-Pump-4               85.10           4      0.00     88.12     95.00     2.052     37.13    0.0    0.0
  
  
  ***************************
  Link Pollutant Load Summary
  ***************************
  
  ------------------------------------------------------------------------------------------
                                 COD            SS            TN            TP         NH4-N
  Link                            kg            kg            kg            kg            kg
  ------------------------------------------------------------------------------------------
  WS02003066WSF200           407.615       718.615        13.583         1.321         7.513
  WS02006287WS02006284       153.620       274.233         7.147         0.787         4.171
  WS02006284WS02006280       154.042       274.915         7.186         0.792         4.196
  WS02006280WS02006229       154.025       274.880         7.186         0.792         4.196
  WS02006229WS02006228       403.862       712.317        13.117         1.260         7.217
  WS02006256WS02006235        87.946       151.918         2.225         0.185         1.161
  WS02006253WS02006251        28.813        53.520         0.729         0.060         0.375
  WS02006252WS02006251       141.779       247.006         3.207         0.243         1.605
  WS02006251WS02006249       163.850       288.824         3.792         0.292         1.910
  WS02006249WS02006248       163.349       287.940         3.776         0.290         1.901
  WS02006248WS02006247       163.724       288.610         3.787         0.292         1.907
  WS02006247WS02006245       163.744       288.635         3.794         0.292         1.912
  WS02006245WS02006243       163.385       288.051         3.787         0.292         1.908
  WS02006243WS02006242       164.206       289.508         3.813         0.295         1.923
  WS02006242WS02006240       165.789       292.316         3.836         0.295         1.932
  WS02006240WS02006239       168.170       296.488         3.897         0.300         1.964
  WS02006239WS02006238       171.418       302.007         3.986         0.308         2.012
  WS02006238WS02006235       173.196       304.904         4.038         0.313         2.039
  WS02006235WS02006234       251.526       440.294         5.998         0.475         3.059
  WS02006234WS02006232       251.393       440.054         5.997         0.475         3.059
  WS02006232WS02006231       251.010       439.386         5.985         0.474         3.052
  WS02006231WS02006230       250.748       438.961         5.979         0.473         3.049
  WS02006230WS02006229       251.087       439.624         5.994         0.475         3.058
  WS02006228WS02006109       403.487       711.708        13.088         1.256         7.199
  WS02006116WS02004401       413.609       728.857        13.800         1.342         7.634
  WS02006115WS02006116       413.966       729.461        13.813         1.344         7.642
  WS02006113WS02006111       410.783       723.360        13.807         1.346         7.650
  WS02006112WS02006115       414.685       730.668        13.855         1.349         7.667
  WS02006111WS02006112       410.588       723.028        13.799         1.345         7.645
  WS02006110WS02006113       411.099       723.885        13.828         1.349         7.662
  WS02006109WS02006110       411.937       725.257        13.890         1.356         7.700
  WS02004411WS02004412       409.955       722.599        13.693         1.333         7.577
  WS02004401WS02004402       412.913       727.681        13.764         1.338         7.613
  WS02004413WS02003067       407.818       718.951        13.591         1.322         7.518
  WS02004412WS02004413       409.255       721.406        13.665         1.330         7.562
  WS02004410WS02004411       410.415       723.381        13.710         1.335         7.587
  WS02004409WS02004410       410.959       724.307        13.733         1.337         7.600
  WS02004407WS02004409       411.172       724.667        13.738         1.337         7.603
  WS02004406WS02004407       410.969       724.316        13.725         1.336         7.595
  WS02004405WS02004406       412.567       726.967        13.832         1.349         7.660
  WS02004404WS02004405       412.462       726.822        13.797         1.344         7.637
  WS02004403WS02004404       411.754       725.718        13.710         1.333         7.582
  WS02004402WS02004403       412.420       726.849        13.743         1.336         7.601
  WS02004139WS02001211      1433.967      2310.196       130.734        16.214        81.331
  WS02004138WS02004139      1439.720      2319.484       131.244        16.277        81.647
  WS02003067WS02003066       407.730       718.812        13.589         1.322         7.517
  WS02001213WS02003059      1465.689      2360.831       133.842        16.604        83.276
  WS02001212WS02001213      1475.449      2376.506       134.750        16.717        83.842
  WS02001211WS02001212      1477.207      2379.319       134.917        16.738        83.947
  WS02003072WS02003073      1968.465      3231.414       156.713        19.088        96.602
  WS02003069WS02003072      1973.891      3240.211       157.183        19.146        96.893
  WS02003060WS02003069      1977.022      3245.287       157.447        19.179        97.057
  WS02003059WS02003060      1461.784      2354.653       133.430        16.552        83.018
  HS02004901HS02004770         4.719         8.809         0.090         0.007         0.042
  HS02004876HS02004881        17.993        34.092         0.459         0.037         0.235
  HS02004870HS02004876        13.687        25.805         0.386         0.032         0.201
  HS02004842HS02004848         2.503         4.541         0.054         0.004         0.025
  HS02004837HS02004842         7.115        11.875         0.522         0.063         0.318
  HS02004830HS02004837        53.600        88.955         4.327         0.530         2.674
  HS02004824HS02004830        54.350        90.157         4.399         0.539         2.719
  HS02004817HS02004824        64.386       109.161         4.631         0.555         2.836
  HS02004770HS02004777        18.053        34.000         0.381         0.025         0.174
  HS02004799HS02004480        67.973       122.828         2.437         0.246         1.351
  HS02004792HS02004799        62.304       111.542         2.380         0.246         1.332
  HS02004788HS02004792        38.436        68.536         1.779         0.193         1.026
  HS02004785HS02004788        19.551        36.410         0.533         0.045         0.270
  HS02004777HS02004785        18.999        35.516         0.484         0.038         0.239
  HS02004480HS02004478        84.124       153.997         2.668         0.260         1.453
  HS02004479HS02004480        20.379        37.898         0.633         0.064         0.353
  HS02004862HS02004870        10.184        18.810         0.316         0.028         0.168
  HS02004848HS02004852         3.379         6.212         0.072         0.005         0.033
  HS02004856HS02004862         6.282        11.949         0.128         0.008         0.060
  HS02004852HS02004856         3.375         6.204         0.072         0.005         0.033
  HS02004802HS02004478        69.816       120.765         4.506         0.530         2.735
  HS02004478WS02006287       153.804       274.541         7.162         0.789         4.181
  HS02004817HS02004807        63.028       106.988         4.502         0.539         2.756
  HS02004807HS02004802        70.439       121.756         4.566         0.538         2.773
  YS02001759YS02001757       190.377       331.348         4.080         0.284         2.016
  YS02001762YS02001759        97.797       171.520         2.289         0.165         1.153
  YS02001765YS02001762        97.139       170.287         2.298         0.166         1.161
  YS02001770YS02001767        94.681       166.290         1.997         0.127         0.969
  YS02001774YS02001770         8.642        15.011         0.200         0.014         0.100
  YS02001779YS02001774         7.961        13.589         0.321         0.032         0.183
  YS02001649YS02001757       227.092       385.963         4.852         0.349         2.354
  YS02001767YS02001765        97.062       170.096         2.309         0.168         1.168
  YS02006561YS02001783       395.404       682.971         9.724         0.790         5.030
  YS02001783YS02001784       395.341       682.888         9.721         0.790         5.028
  YS02001784YS02001785       402.719       694.710        10.435         0.879         5.475
  YS02001788YS02001790       403.402       695.832        10.509         0.888         5.521
  YS02001790YS02001791       404.541       697.669        10.613         0.901         5.586
  YS02001791YS02001793       404.536       697.662        10.610         0.901         5.584
  YS02001910YS02001907       132.940       225.187         4.411         0.399         2.417
  YS02001786YS02001788       402.955       695.101        10.463         0.883         5.493
  YS02001915YS02001910       132.853       225.008         4.363         0.392         2.384
  YS02001918YS02001915        66.002       106.895         2.900         0.310         1.685
  YS02001923YS02001920        46.035        74.976         0.954         0.067         0.468
  YS02001926YS02001923        45.680        74.408         0.915         0.062         0.443
  YS02001929YS02001926        45.427        73.993         0.884         0.058         0.424
  YS02001920YS02001918        65.955       106.853         2.872         0.307         1.667
  YS02001629YS02163301        51.840        87.567         1.128         0.071         0.523
  YS02001619YS02001622        54.665        91.923         1.195         0.075         0.553
  YS02001622YS02001625        53.628        90.339         1.170         0.073         0.541
  YS02001625YS02001629        52.547        88.740         1.143         0.072         0.529
  YS02163301YS02001633        52.569        88.846         1.140         0.072         0.530
  YS02163601YS02164001       144.244       242.061         3.030         0.213         1.455
  YS02164001YS02001641       143.877       241.468         3.010         0.211         1.444
  YS02001641YS02001644       144.738       242.899         3.019         0.211         1.447
  YS02001647YS02001649       194.091       328.123         4.027         0.283         1.942
  YS02006553YS02006556       285.824       491.970         7.365         0.623         3.873
  YS02006556YS02006558       285.695       491.730         7.331         0.618         3.851
  YSB6556YSB1171              11.020        20.667         0.273         0.025         0.146
  YS02001907YS02006553       285.808       491.961         7.362         0.622         3.872
  YS02006558YS02006561       395.398       682.953         9.722         0.790         5.029
  YS02001633YS02163601       144.904       243.055         3.012         0.210         1.441
  YS02001644YS02001647       198.086       334.797         4.091         0.287         1.971
  YS02001745YS02001748        81.059       139.345         2.105         0.158         1.082
  YS02001748YS02001751        82.226       141.018         2.361         0.192         1.249
  YS02001751YS02001754        81.598       139.828         2.443         0.205         1.306
  YS02001754YS02001757        82.453       141.159         2.611         0.228         1.415
  YS02001882YS02001884         1.459         2.435         0.034         0.003         0.018
  YS02001884YS02001887         4.224         7.239         0.094         0.008         0.048
  YS02001890YS02001895       154.023       268.441         2.977         0.225         1.468
  YS02001895YS02001898       153.874       268.227         2.971         0.225         1.464
  YS02001898YS02001901       153.746       268.043         2.968         0.225         1.463
  YS02001901YS02001904       153.758       268.096         2.986         0.227         1.475
  YS02001904YS02001907       154.400       269.164         3.069         0.238         1.528
  YS02001887YS02001890       154.880       269.764         3.039         0.233         1.506
  YS02001652YS02001649        53.695        92.419         1.277         0.099         0.621
  YS02001655YS02001652        54.361        93.509         1.295         0.101         0.630
  YS02001658YS02001655        52.890        91.175         1.099         0.075         0.504
  YS02001661YS02001658        60.328       104.167         1.252         0.086         0.575
  YS02001664YS02001661        70.045       119.333         1.478         0.101         0.677
  YSB1154YSB6556              10.533        19.890         0.213         0.018         0.108
  YSB1174YSB1171               7.513        14.260         0.185         0.017         0.098
  YSB1171HS02004479           20.294        37.772         0.625         0.063         0.348
  HS02004881HS02006253        20.299        38.616         0.500         0.039         0.254
  YS02001793JiankangQianchi       404.416       697.510        10.544         0.892         5.541
  YS02001757CaochengTiaoxuchi       408.067       704.317         9.292         0.697         4.644
  WSF200WS02003060           407.898       719.106        13.598         1.323         7.522
  1                         1973.638      3239.742       157.217        19.152        96.918
  CC-Pump-1                  106.383       185.383         2.401         0.181         1.201
  CC-Pump-2                   35.234        61.357         0.796         0.060         0.398
  JK-Pump-1                   84.200       145.332         2.115         0.175         1.101
  JK-Pump-2                  163.558       284.140         4.064         0.335         2.112
  XR-Pump-1                  407.486       656.278        37.225         4.618        23.163
  XR-Pump-2                  359.387       579.022        32.746         4.061        20.371
  XR-Pump-3                  338.621       545.630        30.836         3.824        19.181
  XR-Pump-4                  338.621       545.630        30.836         3.824        19.181
  

  Analysis begun on:  Sun Jul 11 10:44:51 2021
  Analysis ended on:  Sun Jul 11 10:44:54 2021
  Total elapsed time: 00:00:03