
  EPA STORM WATER MANAGEMENT MODEL - VERSION 5.1 (Build 5.3.0.dev0)
  --------------------------------------------------------------

  WARNING 04: minimum elevation drop used for Conduit WS02004404WS02004405
  WARNING 03: negative offset ignored for Link YS02001904YS02001907
  
  *********************************************************
  NOTE: The summary statistics displayed in this report are
  based on results found at every computational time step,  
  not just on results from each reporting time step.
  *********************************************************
  
  ****************
  Analysis Options
  ****************
  Flow Units ............... LPS
  Process Models:
    Rainfall/Runoff ........ YES
    RDII ................... NO
    Snowmelt ............... NO
    Groundwater ............ NO
    Flow Routing ........... YES
    Ponding Allowed ........ NO
    Water Quality .......... YES
  Infiltration Method ...... HORTON
  Flow Routing Method ...... DYNWAVE
  Surcharge Method ......... EXTRAN
  Starting Date ............ 08/28/2015 08:00:00
  Ending Date .............. 08/28/2015 15:50:00
  Antecedent Dry Days ...... 8.0
  Report Time Step ......... 00:01:00
  Wet Time Step ............ 00:01:00
  Dry Time Step ............ 00:01:00
  Routing Time Step ........ 5.00 sec
  Variable Time Step ....... YES
  Maximum Trials ........... 8
  Number of Threads ........ 4
  Head Tolerance ........... 0.001500 m
  
  
  **************************        Volume         Depth
  Runoff Quantity Continuity     hectare-m            mm
  **************************     ---------       -------
  Total Precipitation ......         3.299         7.222
  Evaporation Loss .........         0.000         0.000
  Infiltration Loss ........         0.671         1.468
  Surface Runoff ...........         2.005         4.390
  Final Storage ............         0.624         1.365
  Continuity Error (%) .....        -0.021
  
  
  **************************           COD            SS            TN            TP         NH4-N
  Runoff Quality Continuity             kg            kg            kg            kg            kg
  **************************    ----------    ----------    ----------    ----------    ----------
  Initial Buildup ..........     41378.656     70582.865      1804.177       168.684      1032.807
  Surface Buildup ..........        16.421        24.064         2.857         0.263         1.685
  Wet Deposition ...........         0.000         0.000         0.000         0.000         0.000
  Sweeping Removal .........         0.000         0.000         0.000         0.000         0.000
  Infiltration Loss ........        41.115        74.344         0.794         0.054         0.375
  BMP Removal ..............         0.000         0.000         0.000         0.000         0.000
  Surface Runoff ...........      1357.957      2382.021        26.987         1.776        12.748
  Remaining Buildup ........     39995.556     68149.778      1779.243       167.116      1021.365
  Continuity Error (%) .....         0.001         0.001         0.001         0.000         0.000
  
  
  **************************        Volume        Volume
  Flow Routing Continuity        hectare-m      10^6 ltr
  **************************     ---------     ---------
  Dry Weather Inflow .......         0.616         6.165
  Wet Weather Inflow .......         2.004        20.044
  Groundwater Inflow .......         0.000         0.000
  RDII Inflow ..............         0.000         0.000
  External Inflow ..........         0.102         1.024
  External Outflow .........         1.611        16.109
  Flooding Loss ............         0.772         7.725
  Evaporation Loss .........         0.000         0.000
  Exfiltration Loss ........         0.000         0.000
  Initial Stored Volume ....         0.076         0.761
  Final Stored Volume ......         0.550         5.497
  Continuity Error (%) .....        -4.780
  
  
  **************************           COD            SS            TN            TP         NH4-N
  Quality Routing Continuity            kg            kg            kg            kg            kg
  **************************    ----------    ----------    ----------    ----------    ----------
  Dry Weather Inflow .......      1541.201      2465.922       147.955        18.494        92.472
  Wet Weather Inflow .......      1357.558      2381.372        26.978         1.775        12.744
  Groundwater Inflow .......         0.000         0.000         0.000         0.000         0.000
  RDII Inflow ..............         0.000         0.000         0.000         0.000         0.000
  External Inflow ..........       183.418       293.469        17.608         2.201        11.005
  External Outflow .........      2003.046      3303.741       156.616        19.030        96.408
  Flooding Loss ............       495.552       857.111        11.294         0.865         5.679
  Exfiltration Loss ........         0.000         0.000         0.000         0.000         0.000
  Mass Reacted .............         0.000         0.000         0.000         0.000         0.000
  Initial Stored Mass ......         0.000         0.000         0.000         0.000         0.000
  Final Stored Mass ........       396.720       668.637        15.719         1.606         8.925
  Continuity Error (%) .....         6.063         6.055         4.630         4.317         4.482
  
  
  *************************
  Highest Continuity Errors
  *************************
  Node HS02004842 (21.49%)
  Node JK-storage (-20.84%)
  Node YS02001884 (11.74%)
  Node YS02001774 (8.61%)
  Node YSB1171 (4.57%)
  
  
  ***************************
  Time-Step Critical Elements
  ***************************
  Link WS02006252WS02006251 (56.85%)
  Link YS02006556YS02006558 (9.74%)
  Link WS02006238WS02006235 (8.51%)
  Link WS02006280WS02006229 (6.41%)
  Link YS02001793JiankangQianchi (4.87%)
  
  
  ********************************
  Highest Flow Instability Indexes
  ********************************
  Link WS02006113WS02006111 (45)
  Link WS02006111WS02006112 (23)
  Link YS02001629YS02163301 (21)
  Link YS02163301YS02001633 (21)
  Link YS02163601YS02164001 (21)
  
  
  *************************
  Routing Time Step Summary
  *************************
  Minimum Time Step           :     0.50 sec
  Average Time Step           :     1.41 sec
  Maximum Time Step           :     5.00 sec
  Percent in Steady State     :    -0.00
  Average Iterations per Step :     3.73
  Percent Not Converging      :    17.45
  
  
  ***************************
  Subcatchment Runoff Summary
  ***************************
  
  ------------------------------------------------------------------------------------------------------------------------------
                            Total      Total      Total      Total     Imperv       Perv      Total       Total     Peak  Runoff
                           Precip      Runon       Evap      Infil     Runoff     Runoff     Runoff      Runoff   Runoff   Coeff
  Subcatchment                 mm         mm         mm         mm         mm         mm         mm    10^6 ltr      LPS
  ------------------------------------------------------------------------------------------------------------------------------
  sub0                       7.22       0.00       0.00       0.46       6.67       0.04       6.71        0.01     2.09   0.930
  sub1                       7.22       0.00       0.00       0.76       6.34       0.03       6.37        0.04    12.49   0.882
  sub2                       7.22       0.00       0.00       2.65       4.47       0.03       4.50        0.04    11.31   0.622
  sub3                       7.22       0.00       0.00       2.65       4.43       0.02       4.45        0.10    23.86   0.616
  sub4                       7.22       0.00       0.00       0.78       6.19       0.02       6.21        0.13    27.21   0.860
  sub5                       7.22       0.00       0.00       0.48       6.62       0.03       6.65        0.08    22.20   0.921
  sub7                       7.22       0.00       0.00       0.61       6.51       0.04       6.55        0.02     7.44   0.907
  sub8                       7.22       0.00       0.00       0.61       6.50       0.04       6.54        0.04    13.42   0.905
  sub9                       7.22       0.00       0.00       0.62       6.50       0.03       6.53        0.03     9.99   0.905
  sub10                      7.22       0.00       0.00       0.55       6.56       0.03       6.59        0.07    21.99   0.912
  sub11                      7.22       0.00       0.00       0.54       6.58       0.03       6.61        0.08    25.08   0.915
  sub12                      7.22       0.00       0.00       0.88       6.24       0.05       6.29        0.05    20.05   0.871
  sub14                      7.22       0.00       0.00       0.62       6.50       0.03       6.53        0.06    19.58   0.904
  sub15                      7.22       0.00       0.00       2.13       5.00       0.04       5.04        0.09    26.77   0.697
  sub16                      7.22       0.00       0.00       2.32       4.80       0.06       4.86        0.05    17.94   0.673
  sub17                      7.22       0.00       0.00       2.25       4.87       0.06       4.93        0.04    14.65   0.682
  sub22                      7.22       0.00       0.00       3.06       4.08       0.04       4.12        0.26    85.53   0.570
  sub23                      7.22       0.00       0.00       2.62       4.51       0.05       4.56        0.22    72.35   0.631
  sub60                      7.22       0.00       0.00       0.86       4.83       0.00       4.83        1.46   145.14   0.669
  sub61                      7.22       0.00       0.00       1.22       5.02       0.00       5.02        1.55   180.86   0.696
  sub62                      7.22       0.00       0.00       0.57       5.42       0.00       5.43        1.67   185.18   0.752
  sub63                      7.22       0.00       0.00       2.09       4.43       0.01       4.43        1.34   168.31   0.614
  sub64                      7.22       0.00       0.00       1.08       4.62       0.00       4.63        1.41   137.93   0.641
  sub65                      7.22       0.00       0.00       0.94       4.69       0.00       4.69        1.44   140.05   0.650
  sub66                      7.22       0.00       0.00       2.09       4.00       0.00       4.00        1.23   126.15   0.554
  sub67                      7.22       0.00       0.00       0.57       5.83       0.01       5.83        1.80   236.01   0.808
  sub68                      7.22       0.00       0.00       1.01       5.31       0.01       5.31        1.63   199.57   0.736
  sub69                      7.22       0.00       0.00       1.07       5.60       0.01       5.61        1.31   196.27   0.776
  sub70                      7.22       5.72       0.00       4.34       7.23       0.06       7.28        1.67   170.40   0.563
  sub71                      7.22       0.00       0.00       0.57       5.24       0.00       5.24        1.24   129.56   0.726
  sub72                      7.22       0.00       0.00       0.50       3.94       0.00       3.95        0.80    63.85   0.546
  1                          7.22       7.09       0.00       1.33       7.68       1.52       9.21        2.16   168.17   0.643
  2                          7.22       0.00       0.00       2.93       1.68       0.57       2.24        0.90   121.02   0.311
  
  
  ****************************
  Subcatchment Washoff Summary
  ****************************
  
  ------------------------------------------------------------------------------------------
                                 COD            SS            TN            TP         NH4-N
  Subcatchment                    kg            kg            kg            kg            kg
  ------------------------------------------------------------------------------------------
  sub0                         1.221         2.326         0.020         0.002         0.010
  sub1                         4.961         9.583         0.092         0.006         0.044
  sub2                         2.842         5.285         0.062         0.004         0.028
  sub3                         6.898        12.661         0.147         0.010         0.067
  sub4                        10.901        20.944         0.220         0.013         0.105
  sub5                        11.473        21.889         0.201         0.015         0.097
  sub7                         2.613         5.148         0.049         0.003         0.023
  sub8                         3.916         7.867         0.078         0.005         0.037
  sub9                         3.332         6.603         0.064         0.004         0.031
  sub10                        9.487        18.340         0.172         0.012         0.083
  sub11                        9.379        18.384         0.174         0.012         0.084
  sub12                        7.893        15.220         0.140         0.010         0.067
  sub14                        7.093        13.925         0.133         0.009         0.064
  sub15                        8.405        15.732         0.163         0.012         0.076
  sub16                        5.361        10.044         0.102         0.008         0.047
  sub17                        4.921         9.138         0.090         0.007         0.042
  sub22                       24.872        45.570         0.476         0.035         0.221
  sub23                       15.116        28.730         0.328         0.021         0.149
  sub60                       87.372       152.289         1.816         0.106         0.868
  sub61                      110.317       191.936         2.105         0.139         1.010
  sub62                      115.904       205.255         2.341         0.142         1.120
  sub63                       82.284       141.282         1.726         0.118         0.791
  sub64                      105.607       177.210         1.991         0.141         0.945
  sub65                      108.233       182.399         2.057         0.142         0.978
  sub66                       62.775       106.433         1.363         0.086         0.631
  sub67                      174.493       307.337         3.143         0.225         1.513
  sub68                      123.440       217.406         2.429         0.158         1.155
  sub69                      114.891       205.812         2.191         0.149         1.042
  sub70                      176.583       315.367         3.634         0.244         1.684
  sub71                       76.522       136.541         1.647         0.091         0.785
  sub72                       52.985        87.215         1.024         0.067         0.491
  1                          102.737       184.914         2.177         0.147         0.995
  2                           14.605        24.416         0.455         0.027         0.191
  ------------------------------------------------------------------------------------------
  System                    1649.431      2903.199        32.812         2.169        15.474
  
  
  ******************
  Node Depth Summary
  ******************
  
  ---------------------------------------------------------------------------------
                                 Average  Maximum  Maximum  Time of Max    Reported
                                   Depth    Depth      HGL   Occurrence   Max Depth
  Node                 Type       Meters   Meters   Meters  days hr:min      Meters
  ---------------------------------------------------------------------------------
  WS02001211           JUNCTION     0.73     0.79     5.63     0  07:20        0.79
  WS02001212           JUNCTION     0.44     0.51     5.57     0  07:20        0.51
  WS02001213           JUNCTION     0.67     0.76     5.52     0  07:20        0.76
  WS02003069           JUNCTION     0.45     0.58     5.17     0  07:22        0.58
  WS02003072           JUNCTION     0.52     0.64     5.01     0  07:22        0.64
  WS02003073           JUNCTION     0.31     0.39     4.46     0  07:23        0.39
  WS02003060           JUNCTION     0.40     0.51     5.45     0  07:21        0.51
  WS02003066           JUNCTION     0.21     0.30     5.85     0  07:20        0.30
  WS02003059           JUNCTION     0.72     0.81     5.50     0  07:21        0.81
  WS02003067           JUNCTION     0.54     0.70     6.02     0  07:20        0.70
  WS02004401           JUNCTION     0.62     0.85     6.85     0  07:15        0.85
  WS02004402           JUNCTION     0.66     0.87     6.83     0  07:16        0.87
  WS02004403           JUNCTION     0.68     0.89     6.82     0  07:15        0.89
  WS02004404           JUNCTION     0.75     0.96     6.81     0  07:15        0.96
  WS02004406           JUNCTION     0.76     0.95     6.78     0  07:16        0.95
  WS02004409           JUNCTION     0.44     0.67     6.44     0  07:19        0.67
  WS02004410           JUNCTION     0.46     0.68     6.40     0  07:20        0.68
  WS02004411           JUNCTION     0.48     0.69     6.37     0  07:20        0.69
  WS02004412           JUNCTION     0.50     0.70     6.34     0  07:20        0.70
  WS02004413           JUNCTION     0.66     0.86     6.33     0  07:20        0.86
  WS02004405           JUNCTION     0.75     0.95     6.80     0  07:15        0.95
  WS02006109           JUNCTION     0.70     0.99     7.61     0  05:20        0.98
  WS02006110           JUNCTION     0.70     0.93     7.52     0  07:04        0.93
  WS02006111           JUNCTION     0.20     0.29     7.00     0  05:22        0.29
  WS02006112           JUNCTION     0.79     1.05     6.93     0  05:25        1.04
  WS02006113           JUNCTION     0.30     0.46     7.35     0  05:22        0.46
  WS02006115           JUNCTION     0.51     0.75     6.89     0  07:15        0.75
  WS02006116           JUNCTION     0.60     0.83     6.87     0  07:15        0.83
  WS02006230           JUNCTION     0.66     1.12     7.87     0  05:20        1.11
  WS02006231           JUNCTION     0.43     0.87     7.99     0  05:20        0.86
  WS02006232           JUNCTION     0.56     1.07     8.10     0  05:20        1.05
  WS02006234           JUNCTION     0.48     1.08     8.24     0  05:20        1.07
  WS02006235           JUNCTION     0.51     1.18     8.34     0  04:22        1.17
  WS02006238           JUNCTION     0.54     1.22     8.36     0  04:22        1.21
  WS02006240           JUNCTION     0.43     1.24     8.54     0  04:21        1.13
  WS02006242           JUNCTION     0.48     1.38     8.65     0  04:21        1.21
  WS02006243           JUNCTION     0.37     1.39     8.81     0  04:21        1.12
  WS02006245           JUNCTION     0.35     1.29     8.78     0  04:21        1.10
  WS02006247           JUNCTION     0.36     1.24     8.74     0  04:21        1.12
  WS02006248           JUNCTION     0.31     1.10     8.69     0  04:21        1.07
  WS02006249           JUNCTION     0.34     1.09     8.69     0  04:21        1.09
  WS02006239           JUNCTION     0.49     1.20     8.41     0  04:21        1.19
  WS02006251           JUNCTION     0.32     1.24     8.91     0  07:03        1.14
  WS02006252           JUNCTION     0.23     0.80     9.04     0  07:03        0.69
  WS02006253           JUNCTION     0.35     1.29     8.94     0  07:03        1.17
  WS02006256           JUNCTION     1.46     2.35     9.28     0  00:28        2.35
  WS02004138           JUNCTION     0.17     0.20     7.45     0  00:00        0.19
  WS02004139           JUNCTION     0.67     0.74     5.65     0  07:20        0.74
  WS02004407           JUNCTION     0.20     0.29     6.61     0  07:16        0.29
  WS02006228           JUNCTION     0.70     1.03     7.69     0  05:20        1.02
  WS02006229           JUNCTION     0.67     1.03     7.72     0  05:20        1.02
  WS02006280           JUNCTION     0.06     0.18     8.45     0  02:12        0.18
  WS02006284           JUNCTION     0.35     0.54     8.94     0  02:12        0.54
  WS02006287           JUNCTION     0.08     0.27     9.23     0  02:12        0.27
  WSF200               JUNCTION     0.19     0.31     5.54     0  07:26        0.31
  HS02004901           JUNCTION     0.11     0.28    10.10     0  02:09        0.28
  HS02004881           JUNCTION     0.01     0.03     9.06     0  02:12        0.03
  HS02004876           JUNCTION     0.04     0.11     9.14     0  02:12        0.11
  HS02004870           JUNCTION     0.01     0.06     9.34     0  02:12        0.06
  HS02004862           JUNCTION     0.02     0.07     9.45     0  02:13        0.07
  HS02004856           JUNCTION     0.07     0.12     9.55     0  02:12        0.12
  HS02004852           JUNCTION     0.01     0.04     9.55     0  02:13        0.04
  HS02004848           JUNCTION     0.01     0.04     9.64     0  02:12        0.04
  HS02004842           JUNCTION     0.33     0.37     9.64     0  02:12        0.37
  HS02004837           JUNCTION     0.03     0.06     9.64     0  02:12        0.06
  HS02004830           JUNCTION     0.04     0.08     9.54     0  02:12        0.08
  HS02004824           JUNCTION     0.02     0.05     9.46     0  02:15        0.05
  HS02004817           JUNCTION     0.43     0.58     9.43     0  02:12        0.58
  HS02004807           JUNCTION     0.12     0.25     9.42     0  02:12        0.25
  HS02004802           JUNCTION     0.15     0.29     9.42     0  02:12        0.29
  HS02004799           JUNCTION     0.11     0.33     9.54     0  02:10        0.33
  HS02004792           JUNCTION     0.03     0.13     9.66     0  02:10        0.13
  HS02004788           JUNCTION     0.02     0.10    10.00     0  02:10        0.10
  HS02004785           JUNCTION     0.04     0.17    10.07     0  02:10        0.17
  HS02004777           JUNCTION     0.14     0.30    10.09     0  02:10        0.30
  HS02004770           JUNCTION     0.11     0.27    10.10     0  02:10        0.27
  HS02004480           JUNCTION     0.07     0.26     9.50     0  02:11        0.26
  HS02004479           JUNCTION     0.10     0.30     9.50     0  02:10        0.30
  HS02004478           JUNCTION     0.05     0.17     9.40     0  02:12        0.17
  YS02001745           JUNCTION     0.66     0.87     8.38     0  03:32        0.87
  YS02001748           JUNCTION     1.05     1.38     8.45     0  02:59        1.30
  YS02001751           JUNCTION     1.23     1.66     8.54     0  02:41        1.50
  YS02001754           JUNCTION     1.48     1.80     8.41     0  03:20        1.78
  YS02001762           JUNCTION     1.67     2.02     8.42     0  03:18        2.00
  YS02001765           JUNCTION     1.63     1.97     8.42     0  03:11        1.95
  YS02001767           JUNCTION     1.59     1.92     8.41     0  03:18        1.91
  YS02001770           JUNCTION     1.59     1.90     8.40     0  03:21        1.90
  YS02001774           JUNCTION     1.65     1.97     8.39     0  03:20        1.96
  YS02001779           JUNCTION     1.41     1.68     8.37     0  03:05        1.68
  YS02001882           JUNCTION     0.34     0.64     7.36     0  02:46        0.64
  YS02001884           JUNCTION     0.43     0.74     7.36     0  02:46        0.74
  YS02001759           JUNCTION     1.71     2.06     8.42     0  03:21        2.04
  YS02001887           JUNCTION     0.51     0.82     7.36     0  02:46        0.82
  YS02001890           JUNCTION     0.54     0.84     7.35     0  02:46        0.84
  YS02001898           JUNCTION     0.31     0.60     7.34     0  02:40        0.60
  YS02001901           JUNCTION     0.43     0.73     7.34     0  02:39        0.73
  YS02001904           JUNCTION     0.41     0.70     7.33     0  02:45        0.70
  YS02001907           JUNCTION     0.74     1.05     7.34     0  02:40        1.05
  YS02001910           JUNCTION     0.53     0.83     7.34     0  02:45        0.83
  YS02001915           JUNCTION     0.33     0.61     7.33     0  02:42        0.61
  YS02001918           JUNCTION     0.11     0.26     7.33     0  02:46        0.26
  YS02001619           JUNCTION     1.20     1.54     8.47     0  02:52        1.46
  YS02001629           JUNCTION     1.54     1.85     8.40     0  03:07        1.83
  YS02001641           JUNCTION     1.64     1.94     8.38     0  03:08        1.93
  YS02001644           JUNCTION     1.65     1.92     8.35     0  03:04        1.92
  YS02001652           JUNCTION     1.49     2.06     8.66     0  02:36        1.91
  YS02001655           JUNCTION     1.26     2.20     9.05     0  02:35        1.75
  YS02001920           JUNCTION     0.21     0.34     7.34     0  02:46        0.33
  YS02001923           JUNCTION     0.08     0.12     7.38     0  03:01        0.12
  YS02001926           JUNCTION     0.17     0.23     7.67     0  03:01        0.23
  YS02001929           JUNCTION     0.08     0.12     7.81     0  03:01        0.12
  YS02001658           JUNCTION     1.00     2.02     9.17     0  02:48        1.59
  YS02001661           JUNCTION     0.77     1.77     9.17     0  03:21        1.45
  YS02001664           JUNCTION     0.33     0.57     8.49     0  03:14        0.56
  YS02001622           JUNCTION     1.22     1.53     8.44     0  02:52        1.49
  YS02001633           JUNCTION     1.63     1.95     8.40     0  03:07        1.93
  YS02001649           JUNCTION     1.68     2.05     8.44     0  03:11        2.04
  YS02001757           JUNCTION     1.81     2.16     8.42     0  03:20        2.14
  YS02001895           JUNCTION     0.31     0.60     7.34     0  02:40        0.59
  YS02001625           JUNCTION     1.49     1.78     8.38     0  02:57        1.78
  YS02163301           JUNCTION     1.57     1.89     8.40     0  03:07        1.86
  YS02163601           JUNCTION     1.68     1.99     8.39     0  03:07        1.97
  YS02164001           JUNCTION     1.62     1.92     8.38     0  03:07        1.91
  YS02001647           JUNCTION     1.48     1.80     8.41     0  03:13        1.78
  YSB1154              JUNCTION     0.24     0.44     9.50     0  02:10        0.44
  YSB6556              JUNCTION     0.14     0.33     9.50     0  02:11        0.33
  YSB1174              JUNCTION     0.19     0.39     9.50     0  02:11        0.39
  YSB1171              JUNCTION     0.40     0.60     9.50     0  02:10        0.60
  YS02006553           JUNCTION     0.74     1.06     7.34     0  02:31        1.04
  YS02006561           JUNCTION     0.17     0.36     7.02     0  02:35        0.36
  YS02006556           JUNCTION     0.71     1.02     7.33     0  02:38        1.02
  YS02006558           JUNCTION     0.75     1.07     7.34     0  02:31        1.06
  YS02001783           JUNCTION     0.33     1.04     7.18     0  02:21        0.91
  YS02001784           JUNCTION     0.36     1.17     7.24     0  02:21        0.93
  YS02001786           JUNCTION     0.32     1.27     7.30     0  02:21        0.89
  YS02001788           JUNCTION     0.26     1.18     7.15     0  02:21        0.86
  YS02001790           JUNCTION     0.35     1.96     7.60     0  02:19        1.12
  YS02001791           JUNCTION     0.32     1.73     7.20     0  03:23        1.20
  YS02001793           JUNCTION     0.44     2.86     7.69     0  02:17        1.79
  WSC                  OUTFALL      0.31     0.39     1.06     0  07:23        0.39
  JK-storage           STORAGE      2.23     5.80     6.60     0  02:19        5.80
  CC-storage           STORAGE      1.07     1.38     8.38     0  03:32        1.38
  XR-storage           STORAGE      3.54     6.30     4.30     0  03:56        6.30
  
  
  *******************
  Node Inflow Summary
  *******************
  
  -------------------------------------------------------------------------------------------------
                                  Maximum  Maximum                  Lateral       Total        Flow
                                  Lateral    Total  Time of Max      Inflow      Inflow     Balance
                                   Inflow   Inflow   Occurrence      Volume      Volume       Error
  Node                 Type           LPS      LPS  days hr:min    10^6 ltr    10^6 ltr     Percent
  -------------------------------------------------------------------------------------------------
  WS02001211           JUNCTION      7.35   389.40     0  04:41       0.207        9.32       0.118
  WS02001212           JUNCTION      0.00   391.44     0  04:41           0         9.3       0.088
  WS02001213           JUNCTION      0.00   393.46     0  04:41           0         9.3       0.176
  WS02003069           JUNCTION      0.32   936.08     0  07:21     0.00902        16.1       0.121
  WS02003072           JUNCTION      0.00   935.96     0  07:22           0        16.1       0.164
  WS02003073           JUNCTION      1.82   937.69     0  07:22      0.0514        16.1       0.177
  WS02003060           JUNCTION     16.53   935.83     0  07:21       0.466        16.1       0.119
  WS02003066           JUNCTION      0.00   533.49     0  07:20           0        6.43       0.071
  WS02003059           JUNCTION      0.00   396.87     0  04:41           0        9.28       0.267
  WS02003067           JUNCTION      0.00   533.48     0  07:20           0        6.44       0.146
  WS02004401           JUNCTION      0.00   537.15     0  05:23           0        6.68       0.337
  WS02004402           JUNCTION      0.00   535.02     0  05:24           0        6.66       0.316
  WS02004403           JUNCTION      0.00   534.14     0  05:24           0        6.64       0.287
  WS02004404           JUNCTION      0.16   534.03     0  07:15     0.00457        6.62       0.216
  WS02004406           JUNCTION      0.00   534.07     0  07:16           0        6.59       0.523
  WS02004409           JUNCTION      0.00   534.05     0  07:16           0        6.54       0.257
  WS02004410           JUNCTION      0.00   533.71     0  07:18           0        6.53       0.291
  WS02004411           JUNCTION      0.00   533.57     0  07:19           0        6.51       0.296
  WS02004412           JUNCTION      0.00   533.51     0  07:19           0        6.49       0.318
  WS02004413           JUNCTION      0.00   533.48     0  07:20           0        6.47       0.473
  WS02004405           JUNCTION      0.04   534.06     0  07:15     0.00107        6.61       0.320
  WS02006109           JUNCTION      1.23   549.96     0  05:20      0.0347        6.76       0.252
  WS02006110           JUNCTION      0.00   549.88     0  05:20           0        6.75       0.322
  WS02006111           JUNCTION      0.00   571.19     0  05:21           0        6.71       0.071
  WS02006112           JUNCTION     14.65   553.93     0  05:22      0.0423        6.75       0.468
  WS02006113           JUNCTION      0.00   550.40     0  05:20           0        6.72       0.162
  WS02006115           JUNCTION      0.00   555.88     0  05:22           0        6.72       0.330
  WS02006116           JUNCTION      0.00   542.01     0  05:23           0         6.7       0.280
  WS02006230           JUNCTION     10.28   531.88     0  05:21        0.29        5.45       0.198
  WS02006231           JUNCTION      0.00   521.67     0  05:22           0        5.17       0.265
  WS02006232           JUNCTION      0.00   521.71     0  05:21           0        5.18       0.322
  WS02006234           JUNCTION      0.00   522.11     0  05:19           0        5.19       0.156
  WS02006235           JUNCTION      0.00   523.13     0  05:21           0        5.31       0.250
  WS02006238           JUNCTION      0.00   347.29     0  06:32           0        2.49       0.221
  WS02006240           JUNCTION      0.00   355.09     0  06:31           0        2.42       0.584
  WS02006242           JUNCTION      0.00   360.54     0  06:31           0        2.39       0.735
  WS02006243           JUNCTION      0.00   366.28     0  06:31           0        2.36       0.231
  WS02006245           JUNCTION      0.00   370.66     0  06:30           0        2.37       0.584
  WS02006247           JUNCTION      0.00   375.32     0  06:30           0        2.37       0.362
  WS02006248           JUNCTION      0.00   379.46     0  06:30           0        2.37       0.121
  WS02006249           JUNCTION      0.00   425.37     0  07:03           0        2.45       0.496
  WS02006239           JUNCTION      0.00   349.49     0  06:32           0        2.45       0.246
  WS02006251           JUNCTION      0.08   411.62     0  07:03     0.00217        2.51       0.318
  WS02006252           JUNCTION      0.00   400.00     0  07:00           0        2.22       0.018
  WS02006253           JUNCTION      2.09   119.78     0  07:01     0.00543       0.293       1.387
  WS02006256           JUNCTION      0.00   983.00     0  02:40           0        5.94       0.018
  WS02004138           JUNCTION      0.00   380.00     0  00:00           0        9.12       0.031
  WS02004139           JUNCTION      0.32   394.45     0  00:00     0.00905        9.13       0.203
  WS02004407           JUNCTION      0.00   534.06     0  07:16           0        6.55       0.116
  WS02006228           JUNCTION      0.00   548.58     0  05:20           0        6.74       0.202
  WS02006229           JUNCTION      0.00   545.57     0  05:20           0        6.76       0.249
  WS02006280           JUNCTION      0.00   345.36     0  02:12           0        1.33       0.005
  WS02006284           JUNCTION      0.10   345.33     0  02:12      0.0027        1.33       0.091
  WS02006287           JUNCTION      0.00   345.20     0  02:12           0        1.33       0.053
  WSF200               JUNCTION      0.00   533.49     0  07:20           0        6.42       0.065
  HS02004901           JUNCTION     17.94    17.94     0  02:07      0.0509       0.051       3.566
  HS02004881           JUNCTION      7.44    68.84     0  02:12      0.0221       0.236       0.044
  HS02004876           JUNCTION     12.49    61.93     0  02:12      0.0424       0.214       0.251
  HS02004870           JUNCTION     13.42    49.67     0  02:12      0.0418       0.172       0.061
  HS02004862           JUNCTION     11.51    36.95     0  02:12      0.0475        0.13       0.131
  HS02004856           JUNCTION      9.99    25.53     0  02:12      0.0314      0.0841       1.742
  HS02004852           JUNCTION      0.00    16.04     0  02:12           0      0.0527       0.099
  HS02004848           JUNCTION     23.86    23.86     0  02:14         0.1         0.1       0.043
  HS02004842           JUNCTION      0.00     8.50     0  02:22           0      0.0605      27.375
  HS02004837           JUNCTION     28.34    35.60     0  02:11       0.252       0.299       0.271
  HS02004830           JUNCTION      0.15    35.72     0  02:12     0.00423        0.29       0.428
  HS02004824           JUNCTION     27.26    62.77     0  02:14       0.131       0.419       0.128
  HS02004817           JUNCTION      0.60    63.36     0  02:15      0.0169       0.436       3.979
  HS02004807           JUNCTION     25.08    86.68     0  02:13      0.0768       0.496       0.860
  HS02004802           JUNCTION      0.00    87.19     0  02:14           0       0.492       0.833
  HS02004799           JUNCTION     19.58   219.89     0  02:10      0.0622       0.726       0.331
  HS02004792           JUNCTION     85.81   200.55     0  02:09       0.268       0.664       0.061
  HS02004788           JUNCTION     28.44   116.46     0  02:10       0.134       0.397       0.097
  HS02004785           JUNCTION      0.15    88.33     0  02:10     0.00423       0.265       0.181
  HS02004777           JUNCTION      0.03    88.61     0  02:08    0.000846       0.265       1.990
  HS02004770           JUNCTION     72.35    89.52     0  02:08       0.217       0.266       1.175
  HS02004480           JUNCTION      0.00   259.90     0  02:10           0       0.853       0.094
  HS02004479           JUNCTION      0.00    40.68     0  02:12           0       0.139       0.527
  HS02004478           JUNCTION      0.00   345.17     0  02:12           0        1.33       0.045
  YS02001745           JUNCTION    145.14   374.21     0  02:53        1.46        1.48       0.689
  YS02001748           JUNCTION      0.04   500.99     0  02:54     0.00127        1.48       1.447
  YS02001751           JUNCTION      0.01   352.88     0  02:41     0.00031        1.43       1.582
  YS02001754           JUNCTION      0.26   223.19     0  02:36     0.00733        1.42       1.770
  YS02001762           JUNCTION      0.00   216.73     0  02:40           0         1.4       1.524
  YS02001765           JUNCTION      0.00   212.36     0  02:40           0         1.4       1.757
  YS02001767           JUNCTION      0.54   208.56     0  02:40      0.0151        1.42       2.575
  YS02001770           JUNCTION    185.33   198.70     0  02:40        1.67         1.7       1.885
  YS02001774           JUNCTION      0.00   151.98     0  03:40           0       0.291       9.417
  YS02001779           JUNCTION      0.01   151.39     0  03:41    0.000141       0.258       6.332
  YS02001882           JUNCTION      0.00    14.29     0  03:03           0      0.0165      13.188
  YS02001884           JUNCTION      0.00    20.53     0  02:24           0      0.0461      13.304
  YS02001759           JUNCTION    180.90   401.08     0  02:40        1.55        2.89       0.791
  YS02001887           JUNCTION    236.46   252.15     0  02:31        1.81        1.84       0.422
  YS02001890           JUNCTION      0.00   247.06     0  02:42           0         1.8       0.471
  YS02001898           JUNCTION      0.00   256.43     0  02:31           0        1.79       0.149
  YS02001901           JUNCTION      0.00   258.62     0  02:43           0        1.78       0.344
  YS02001904           JUNCTION      0.00   256.27     0  02:43           0        1.78       0.318
  YS02001907           JUNCTION      0.00   463.59     0  02:48           0        3.88       0.589
  YS02001910           JUNCTION      0.00   228.64     0  02:46           0        2.11       0.514
  YS02001915           JUNCTION    129.58   217.27     0  02:47        1.24        2.12       0.247
  YS02001918           JUNCTION      0.00    74.40     0  02:47           0       0.881       0.172
  YS02001619           JUNCTION    126.15   126.15     0  02:44        1.23        1.23       0.983
  YS02001629           JUNCTION      0.00   181.40     0  02:36           0        1.15       2.506
  YS02001641           JUNCTION      0.00   319.46     0  02:52           0         2.5       0.845
  YS02001644           JUNCTION    137.97   666.52     0  03:36        1.41        5.51       0.473
  YS02001652           JUNCTION      0.00   249.63     0  02:48           0        1.29       1.875
  YS02001655           JUNCTION      0.15   370.88     0  02:37     0.00434        1.32       1.830
  YS02001920           JUNCTION      2.87    66.74     0  03:01      0.0809       0.883       0.281
  YS02001923           JUNCTION      0.04    63.87     0  03:01     0.00106       0.803       0.051
  YS02001926           JUNCTION      0.05    63.89     0  03:01     0.00147       0.804       0.348
  YS02001929           JUNCTION     63.85    63.85     0  03:01       0.803       0.803       0.050
  YS02001658           JUNCTION      0.00   580.87     0  02:48           0        1.37       1.457
  YS02001661           JUNCTION      0.00   514.82     0  03:09           0        1.55       0.316
  YS02001664           JUNCTION    168.31   389.98     0  03:09        1.34        1.52       0.288
  YS02001622           JUNCTION      0.00   156.75     0  02:41           0        1.21       2.662
  YS02001633           JUNCTION    140.25   316.59     0  02:52        1.45        2.56       1.254
  YS02001649           JUNCTION      0.00   631.08     0  02:37           0        4.41       0.832
  YS02001757           JUNCTION      0.00  1095.04     0  02:21           0        7.13       1.308
  YS02001895           JUNCTION      0.00   250.19     0  02:36           0        1.79       0.237
  YS02001625           JUNCTION      0.00   181.42     0  02:36           0        1.18       3.365
  YS02163301           JUNCTION      0.00   175.37     0  02:52           0        1.14       2.139
  YS02163601           JUNCTION      0.11   316.80     0  02:52      0.0031        2.51       1.198
  YS02164001           JUNCTION      0.00   317.50     0  02:52           0        2.49       0.768
  YS02001647           JUNCTION      0.00   461.35     0  02:52           0        3.61       0.776
  YSB1154              JUNCTION     22.20    22.20     0  02:10      0.0753      0.0765       1.924
  YSB6556              JUNCTION      0.00    22.21     0  02:11           0      0.0773       1.640
  YSB1174              JUNCTION     20.05    20.05     0  02:06       0.055      0.0557       2.360
  YSB1171              JUNCTION      0.00    40.53     0  02:11           0       0.138       4.789
  YS02006553           JUNCTION      0.00   460.00     0  02:48           0        3.87       0.382
  YS02006561           JUNCTION      0.00   686.77     0  02:42           0        5.48       0.018
  YS02006556           JUNCTION      0.00   458.53     0  02:48           0        3.87       0.273
  YS02006558           JUNCTION    200.45   674.81     0  02:42        1.66        5.51       0.074
  YS02001783           JUNCTION      0.00   667.02     0  02:38           0        5.48       0.026
  YS02001784           JUNCTION      1.06   661.90     0  02:38      0.0299        5.51       0.050
  YS02001786           JUNCTION      0.06   668.12     0  02:40     0.00159         5.5       0.048
  YS02001788           JUNCTION      0.07   710.17     0  02:39       0.002         5.5       0.030
  YS02001790           JUNCTION      0.15   761.93     0  02:39     0.00437        5.51       0.014
  YS02001791           JUNCTION      0.00   801.50     0  02:39           0        5.51       0.023
  YS02001793           JUNCTION      0.00   850.66     0  02:40           0        5.51      -0.033
  WSC                  OUTFALL       0.00   937.57     0  07:23           0        16.1       0.000
  JK-storage           STORAGE       0.00   850.73     0  02:40           0        5.66     -17.244
  CC-storage           STORAGE       0.00  1094.46     0  02:21           0        5.84       1.059
  XR-storage           STORAGE     467.01   467.01     0  02:52         8.7         9.3      -1.373
  
  
  **********************
  Node Surcharge Summary
  **********************
  
  Surcharging occurs when water rises above the top of the highest conduit.
  ---------------------------------------------------------------------
                                               Max. Height   Min. Depth
                                   Hours       Above Crown    Below Rim
  Node                 Type      Surcharged         Meters       Meters
  ---------------------------------------------------------------------
  WS02006109           JUNCTION        1.74          0.172        1.648
  WS02006110           JUNCTION        0.40          0.024        1.826
  WS02006112           JUNCTION        0.46          0.048        1.632
  WS02006230           JUNCTION        0.37          0.044        1.526
  WS02006231           JUNCTION        0.58          0.159        1.371
  WS02006232           JUNCTION        1.27          0.365        1.115
  WS02006234           JUNCTION        0.89          0.363        0.877
  WS02006235           JUNCTION        1.07          0.470        0.820
  WS02006238           JUNCTION        1.13          0.501        0.929
  WS02006240           JUNCTION        0.83          0.533        0.857
  WS02006242           JUNCTION        0.87          0.647        0.173
  WS02006243           JUNCTION        0.72          0.682        0.088
  WS02006245           JUNCTION        0.67          0.582        0.268
  WS02006247           JUNCTION        0.67          0.526        0.234
  WS02006248           JUNCTION        0.58          0.380        0.000
  WS02006249           JUNCTION        0.61          0.390        0.000
  WS02006239           JUNCTION        0.90          0.464        0.826
  WS02006251           JUNCTION        0.37          0.211        0.969
  WS02006252           JUNCTION        0.97          0.396        0.704
  WS02006253           JUNCTION        0.37          0.253        2.227
  WS02006256           JUNCTION        6.57          2.050        0.000
  WS02006228           JUNCTION        1.62          0.205        1.995
  YS02001748           JUNCTION        4.84          0.295        0.895
  YS02001751           JUNCTION        5.12          0.657        0.543
  YS02001754           JUNCTION        5.40          0.751        0.399
  YS02001762           JUNCTION        5.60          1.022        0.128
  YS02001765           JUNCTION        5.58          0.969        0.131
  YS02001767           JUNCTION        5.57          0.924        0.106
  YS02001770           JUNCTION        5.56          0.873        0.047
  YS02001774           JUNCTION        5.60          0.966        0.084
  YS02001779           JUNCTION        5.39          0.680        0.000
  YS02001759           JUNCTION        5.62          1.055        0.155
  YS02001907           JUNCTION        0.69          0.041        0.909
  YS02001619           JUNCTION        5.06          0.537        0.073
  YS02001629           JUNCTION        5.08          0.470        0.000
  YS02001641           JUNCTION        5.58          0.939        0.161
  YS02001644           JUNCTION        5.59          0.920        0.000
  YS02001652           JUNCTION        5.43          1.034        0.096
  YS02001655           JUNCTION        5.14          1.200        0.000
  YS02001658           JUNCTION        4.87          1.025        0.275
  YS02001661           JUNCTION        0.04          0.699        0.691
  YS02001622           JUNCTION        5.15          0.533        0.087
  YS02001633           JUNCTION        5.58          0.928        0.132
  YS02001649           JUNCTION        5.60          1.050        0.000
  YS02001757           JUNCTION        5.65          1.159        0.051
  YS02001625           JUNCTION        5.50          0.780        0.000
  YS02163301           JUNCTION        5.56          0.887        0.143
  YS02163601           JUNCTION        5.60          0.992        0.088
  YS02164001           JUNCTION        5.58          0.923        0.177
  YS02001647           JUNCTION        5.46          0.802        0.098
  YS02006553           JUNCTION        0.78          0.057        1.133
  YS02001783           JUNCTION        0.22          0.239        1.361
  YS02001784           JUNCTION        0.26          0.367        1.123
  YS02001786           JUNCTION        0.22          0.465        0.965
  YS02001788           JUNCTION        0.17          0.375        1.105
  YS02001790           JUNCTION        0.91          1.157        0.000
  YS02001791           JUNCTION        1.01          0.932        0.988
  YS02001793           JUNCTION        1.33          1.860        0.740
  
  
  *********************
  Node Flooding Summary
  *********************
  
  Flooding refers to all water that overflows a node, whether it ponds or not.
  --------------------------------------------------------------------------
                                                             Total   Maximum
                                 Maximum   Time of Max       Flood    Ponded
                        Hours       Rate    Occurrence      Volume     Depth
  Node                 Flooded       LPS   days hr:min    10^6 ltr    Meters
  --------------------------------------------------------------------------
  WS02006248              0.01     10.55      0  04:21       0.000     0.000
  WS02006249              0.35     90.51      0  05:19       0.070     0.000
  WS02006256              2.41    789.20      0  05:20       3.028     0.000
  YS02001779              1.52    151.29      0  03:41       0.235     0.000
  YS02001629              0.01      4.42      0  03:07       0.000     0.000
  YS02001644              3.35    666.46      0  03:36       3.489     0.000
  YS02001655              0.01    181.45      0  02:36       0.000     0.000
  YS02001649              0.01     23.10      0  03:21       0.000     0.000
  YS02001625              0.04     21.57      0  03:07       0.001     0.000
  YS02001790              0.01    183.38      0  03:23       0.000     0.000
  JK-storage              0.67    628.71      0  02:29       0.901     0.000
  
  
  **********************
  Storage Volume Summary
  **********************
  
  --------------------------------------------------------------------------------------------------
                         Average     Avg  Evap Exfil       Maximum     Max    Time of Max    Maximum
                          Volume    Pcnt  Pcnt  Pcnt        Volume    Pcnt     Occurrence    Outflow
  Storage Unit           1000 m3    Full  Loss  Loss       1000 m3    Full    days hr:min        LPS
  --------------------------------------------------------------------------------------------------
  JK-storage               0.112      38     0     0         0.291     100       0  02:19     983.00
  CC-storage               2.987      19     0     0         3.846      25       0  03:32     400.00
  XR-storage               0.425      46     0     0         0.755      82       0  03:56     380.00
  
  
  ***********************
  Outfall Loading Summary
  ***********************
  
  ---------------------------------------------------------------------------------------------------------------------------------
                         Flow       Avg       Max       Total         Total         Total         Total         Total         Total
                         Freq      Flow      Flow      Volume           COD            SS            TN            TP         NH4-N
  Outfall Node           Pcnt       LPS       LPS    10^6 ltr            kg            kg            kg            kg            kg
  ---------------------------------------------------------------------------------------------------------------------------------
  WSC                  100.00    624.78    937.57      16.109      2003.138      3303.890       156.622        19.030        96.412
  ---------------------------------------------------------------------------------------------------------------------------------
  System               100.00    624.78    937.57      16.109      2003.138      3303.890       156.622        19.030        96.412
  
  
  ********************
  Link Flow Summary
  ********************
  
  -----------------------------------------------------------------------------
                                 Maximum  Time of Max   Maximum    Max/    Max/
                                  |Flow|   Occurrence   |Veloc|    Full    Full
  Link                 Type          LPS  days hr:min     m/sec    Flow   Depth
  -----------------------------------------------------------------------------
  WS02003066WSF200     CONDUIT    533.49     0  07:20      2.76    0.09    0.23
  WS02006287WS02006284 CONDUIT    345.24     0  02:12      1.93    0.16    0.28
  WS02006284WS02006280 CONDUIT    345.36     0  02:12      2.16    0.14    0.26
  WS02006280WS02006229 CONDUIT    345.36     0  02:12      3.49    0.07    0.18
  WS02006229WS02006228 CONDUIT    548.58     0  05:20      1.09    1.82    1.00
  WS02006256WS02006235 CONDUIT    261.10     0  03:42      3.69    2.76    1.00
  WS02006253WS02006251 CONDUIT    119.29     0  07:01      0.59    0.36    1.00
  WS02006252WS02006251 CONDUIT    403.85     0  07:03      3.21    1.48    1.00
  WS02006251WS02006249 CONDUIT    425.37     0  07:03      1.11    1.23    1.00
  WS02006249WS02006248 CONDUIT    379.46     0  06:30      1.14    2.08    1.00
  WS02006248WS02006247 CONDUIT    375.32     0  06:30      1.11    0.82    1.00
  WS02006247WS02006245 CONDUIT    370.66     0  06:30      1.09    2.94    1.00
  WS02006245WS02006243 CONDUIT    366.28     0  06:31      1.11    1.08    1.00
  WS02006243WS02006242 CONDUIT    360.54     0  06:31      1.01    0.77    1.00
  WS02006242WS02006240 CONDUIT    355.09     0  06:31      0.97    1.41    1.00
  WS02006240WS02006239 CONDUIT    349.49     0  06:32      1.00    1.10    1.00
  WS02006239WS02006238 CONDUIT    347.29     0  06:32      0.94    1.11    1.00
  WS02006238WS02006235 CONDUIT    346.72     0  06:32      0.94    0.77    1.00
  WS02006235WS02006234 CONDUIT    522.11     0  05:19      1.36    5.51    1.00
  WS02006234WS02006232 CONDUIT    521.71     0  05:21      1.36    1.06    1.00
  WS02006232WS02006231 CONDUIT    521.67     0  05:22      1.36    1.09    1.00
  WS02006231WS02006230 CONDUIT    521.60     0  05:21      1.38    7.91    1.00
  WS02006230WS02006229 CONDUIT    532.18     0  05:20      1.38   11.84    1.00
  WS02006228WS02006109 CONDUIT    548.73     0  05:20      1.09    2.40    1.00
  WS02006116WS02004401 CONDUIT    537.15     0  05:23      0.95    0.74    0.84
  WS02006115WS02006116 CONDUIT    542.01     0  05:23      1.05    0.70    0.76
  WS02006113WS02006111 CONDUIT    571.19     0  05:21      2.48    0.68    0.47
  WS02006112WS02006115 CONDUIT    555.88     0  05:22      0.78    0.33    0.87
  WS02006111WS02006112 CONDUIT    553.88     0  05:22      1.53    0.26    0.68
  WS02006110WS02006113 CONDUIT    550.40     0  05:20      1.30    0.50    0.79
  WS02006109WS02006110 CONDUIT    549.88     0  05:20      1.09    1.06    1.00
  WS02004411WS02004412 CONDUIT    533.51     0  07:19      0.92    0.76    0.69
  WS02004401WS02004402 CONDUIT    535.02     0  05:24      0.96    0.64    0.86
  WS02004413WS02003067 CONDUIT    533.48     0  07:20      1.11    0.23    0.59
  WS02004412WS02004413 CONDUIT    533.48     0  07:20      0.83    0.36    0.78
  WS02004410WS02004411 CONDUIT    533.57     0  07:19      0.94    0.73    0.68
  WS02004409WS02004410 CONDUIT    533.71     0  07:18      0.99    0.69    0.67
  WS02004407WS02004409 CONDUIT    534.05     0  07:16      1.52    0.19    0.48
  WS02004406WS02004407 CONDUIT    534.06     0  07:16      1.04    0.24    0.62
  WS02004405WS02004406 CONDUIT    534.07     0  07:16      0.90    1.05    0.95
  WS02004404WS02004405 CONDUIT    534.02     0  07:15      1.12    5.23    0.96
  WS02004403WS02004404 CONDUIT    533.87     0  07:15      0.97    0.39    0.93
  WS02004402WS02004403 CONDUIT    534.14     0  05:24      0.98    0.77    0.88
  WS02004139WS02001211 CONDUIT    382.06     0  04:41      0.90    0.48    0.60
  WS02004138WS02004139 CONDUIT    394.13     0  00:00      3.62    0.08    0.44
  WS02003067WS02003066 CONDUIT    533.49     0  07:20      1.20    0.17    0.41
  WS02001213WS02003059 CONDUIT    396.87     0  04:41      0.89    0.65    0.77
  WS02001212WS02001213 CONDUIT    393.46     0  04:41      1.32    0.61    0.47
  WS02001211WS02001212 CONDUIT    391.44     0  04:41      0.78    0.30    0.65
  WS02003072WS02003073 CONDUIT    935.87     0  07:22      1.72    2.02    0.48
  WS02003069WS02003072 CONDUIT    935.96     0  07:22      1.62    0.45    0.51
  WS02003060WS02003069 CONDUIT    935.76     0  07:21      1.86    0.37    0.46
  WS02003059WS02003060 CONDUIT    401.59     0  04:41      0.95    0.26    0.66
  HS02004901HS02004770 CONDUIT     17.28     0  02:09      0.06    0.07    0.39
  HS02004876HS02004881 CONDUIT     61.92     0  02:12      0.86    0.66    0.10
  HS02004870HS02004876 CONDUIT     49.64     0  02:12      0.59    0.03    0.12
  HS02004842HS02004848 CONDUIT      8.50     0  02:22      0.04    0.00    0.29
  HS02004837HS02004842 CONDUIT      8.83     0  02:23      0.42    0.01    0.31
  HS02004830HS02004837 CONDUIT     35.57     0  02:12      0.52    0.04    0.10
  HS02004824HS02004830 CONDUIT     35.71     0  02:13      0.56    0.05    0.09
  HS02004817HS02004824 CONDUIT     62.76     0  02:15      0.20    0.03    0.45
  HS02004770HS02004777 CONDUIT     88.58     0  02:08      0.32    0.16    0.40
  HS02004799HS02004480 CONDUIT    219.65     0  02:10      0.77    0.28    0.41
  HS02004792HS02004799 CONDUIT    200.46     0  02:10      0.87    0.12    0.33
  HS02004788HS02004792 CONDUIT    116.39     0  02:10      1.00    0.08    0.17
  HS02004785HS02004788 CONDUIT     88.26     0  02:10      0.66    0.67    0.19
  HS02004777HS02004785 CONDUIT     88.18     0  02:10      0.38    0.11    0.33
  HS02004480HS02004478 CONDUIT    259.92     0  02:11      1.19    1.09    0.31
  HS02004479HS02004480 CONDUIT     40.98     0  02:12      0.18    0.04    0.40
  HS02004862HS02004870 CONDUIT     36.91     0  02:13      0.59    0.04    0.09
  HS02004848HS02004852 CONDUIT     16.04     0  02:12      0.40    0.02    0.06
  HS02004856HS02004862 CONDUIT     25.48     0  02:12      0.44    0.03    0.08
  HS02004852HS02004856 CONDUIT     16.00     0  02:13      0.20    0.02    0.11
  HS02004802HS02004478 CONDUIT     87.84     0  02:15      0.39    0.08    0.33
  HS02004478WS02006287 CONDUIT    345.20     0  02:12      1.63    0.10    0.24
  HS02004817HS02004807 CONDUIT     64.25     0  02:16      0.16    0.04    0.59
  HS02004807HS02004802 CONDUIT     87.19     0  02:14      0.33    0.17    0.38
  YS02001759YS02001757 CONDUIT    403.52     0  02:40      0.51    0.29    1.00
  YS02001762YS02001759 CONDUIT    220.62     0  02:40      0.28    0.25    1.00
  YS02001765YS02001762 CONDUIT    216.73     0  02:40      0.28    0.20    1.00
  YS02001770YS02001767 CONDUIT    208.03     0  02:40      0.30    0.82    1.00
  YS02001774YS02001770 CONDUIT    151.98     0  03:40      0.19    0.10    1.00
  YS02001779YS02001774 CONDUIT    151.39     0  03:41      0.19    0.08    1.00
  YS02001649YS02001757 CONDUIT    635.71     0  02:37      0.81    0.39    1.00
  YS02001767YS02001765 CONDUIT    212.36     0  02:40      0.28    0.27    1.00
  YS02006561YS02001783 CONDUIT    667.02     0  02:38      2.12    0.35    0.73
  YS02001783YS02001784 CONDUIT    660.84     0  02:38      1.57    0.91    1.00
  YS02001784YS02001785 CONDUIT    668.06     0  02:40      1.69    1.55    1.00
  YS02001788YS02001790 CONDUIT    761.78     0  02:39      2.23    0.56    1.00
  YS02001790YS02001791 CONDUIT    801.50     0  02:39      2.69    0.87    1.00
  YS02001791YS02001793 CONDUIT    850.66     0  02:40      5.50    0.37    1.00
  YS02001910YS02001907 CONDUIT    222.40     0  02:47      0.49    0.13    0.92
  YS02001786YS02001788 CONDUIT    710.10     0  02:39      2.15    1.37    1.00
  YS02001915YS02001910 CONDUIT    228.64     0  02:46      0.46    0.11    0.72
  YS02001918YS02001915 CONDUIT     87.95     0  02:47      0.44    0.05    0.44
  YS02001923YS02001920 CONDUIT     63.87     0  03:01      0.58    0.03    0.23
  YS02001926YS02001923 CONDUIT     63.83     0  03:01      0.65    0.09    0.18
  YS02001929YS02001926 CONDUIT     63.84     0  03:01      0.70    0.03    0.17
  YS02001920YS02001918 CONDUIT     74.40     0  02:47      0.57    0.07    0.30
  YS02001629YS02163301 CONDUIT    175.37     0  02:52      0.22    0.22    1.00
  YS02001619YS02001622 CONDUIT    156.75     0  02:41      0.73    0.23    1.00
  YS02001622YS02001625 CONDUIT    181.42     0  02:36      0.31    0.10    1.00
  YS02001625YS02001629 CONDUIT    181.40     0  02:36      0.28    0.09    1.00
  YS02163301YS02001633 CONDUIT    176.51     0  02:52      0.22    0.17    1.00
  YS02163601YS02164001 CONDUIT    317.50     0  02:52      0.40    0.28    1.00
  YS02164001YS02001641 CONDUIT    319.46     0  02:52      0.41    0.44    1.00
  YS02001641YS02001644 CONDUIT    322.02     0  02:52      0.41    1.04    1.00
  YS02001647YS02001649 CONDUIT    463.49     0  02:52      0.59    0.24    1.00
  YS02006553YS02006556 CONDUIT    458.53     0  02:48      0.59    0.39    0.99
  YS02006556YS02006558 CONDUIT    476.75     0  02:42      0.61    0.38    1.00
  YSB6556YSB1171       CONDUIT     22.45     0  02:13      0.08    0.02    0.66
  YS02001907YS02006553 CONDUIT    460.00     0  02:48      0.51    0.54    1.00
  YS02006558YS02006561 CONDUIT    686.77     0  02:42      3.18    1.52    0.75
  YS02001633YS02163601 CONDUIT    316.69     0  02:52      0.40    0.33    1.00
  YS02001644YS02001647 CONDUIT    461.35     0  02:52      0.59    0.27    1.00
  YS02001745YS02001748 CONDUIT    500.94     0  02:54      1.60    0.19    0.93
  YS02001748YS02001751 CONDUIT    352.87     0  02:41      1.20    0.18    1.00
  YS02001751YS02001754 CONDUIT    222.93     0  02:36      0.90    0.11    1.00
  YS02001754YS02001757 CONDUIT    224.08     0  02:36      0.33    0.09    1.00
  YS02001882YS02001884 CONDUIT     14.29     0  03:03      0.08    0.02    0.66
  YS02001884YS02001887 CONDUIT     20.53     0  02:24      0.05    0.03    0.75
  YS02001890YS02001895 CONDUIT    250.19     0  02:36      0.42    0.12    0.72
  YS02001895YS02001898 CONDUIT    256.43     0  02:31      0.55    0.44    0.58
  YS02001898YS02001901 CONDUIT    258.62     0  02:43      0.49    0.17    0.66
  YS02001901YS02001904 CONDUIT    256.27     0  02:43      0.44    0.40    0.71
  YS02001904YS02001907 CONDUIT    263.97     0  02:42      0.37    0.09    0.85
  YS02001887YS02001890 CONDUIT    247.06     0  02:42      0.37    0.42    0.80
  YS02001652YS02001649 CONDUIT    250.78     0  02:48      0.40    0.12    1.00
  YS02001655YS02001652 CONDUIT    249.63     0  02:48      0.94    0.12    1.00
  YS02001658YS02001655 CONDUIT    370.72     0  02:37      1.38    0.16    1.00
  YS02001661YS02001658 CONDUIT    580.87     0  02:48      1.69    0.23    1.00
  YS02001664YS02001661 CONDUIT    514.82     0  03:09      1.49    0.16    0.72
  YSB1154YSB6556       CONDUIT     22.21     0  02:11      0.19    0.04    0.56
  YSB1174YSB1171       CONDUIT     19.19     0  02:08      0.07    0.03    0.67
  YSB1171HS02004479    CONDUIT     40.68     0  02:12      0.54    0.03    0.53
  HS02004881HS02006253 CONDUIT     68.83     0  02:12      2.07    0.01    0.50
  YS02001793JiankangQianchi CONDUIT    850.73     0  02:40     16.83    0.07    1.00
  YS02001757CaochengTiaoxuchi CONDUIT   1094.46     0  02:21      2.31    0.48    1.00
  WSF200WS02003060     CONDUIT    533.54     0  07:20      1.83    0.12    0.34
  1                    CONDUIT    937.57     0  07:23      3.27    0.33    0.39
  CC-Pump-1            PUMP       200.00     0  05:00              1.00
  CC-Pump-2            PUMP       200.00     0  07:00              1.00
  JK-Pump-1            PUMP       300.00     0  02:40              1.00
  JK-Pump-2            PUMP       683.00     0  02:40              1.00
  XR-Pump-1            PUMP        95.00     0  00:00              1.00
  XR-Pump-2            PUMP        95.00     0  00:00              1.00
  XR-Pump-3            PUMP        95.00     0  00:00              1.00
  XR-Pump-4            PUMP        95.00     0  00:00              1.00
  
  
  ***************************
  Flow Classification Summary
  ***************************
  
  -------------------------------------------------------------------------------------
                      Adjusted    ---------- Fraction of Time in Flow Class ---------- 
                       /Actual         Up    Down  Sub   Sup   Up    Down  Norm  Inlet 
  Conduit               Length    Dry  Dry   Dry   Crit  Crit  Crit  Crit  Ltd   Ctrl  
  -------------------------------------------------------------------------------------
  WS02003066WSF200        1.00   0.01  0.03  0.00  0.00  0.96  0.00  0.00  0.76  0.00
  WS02006287WS02006284    1.00   0.04  0.02  0.00  0.68  0.26  0.00  0.00  0.75  0.00
  WS02006284WS02006280    1.00   0.05  0.00  0.00  0.00  0.00  0.00  0.95  0.00  0.00
  WS02006280WS02006229    1.00   0.05  0.00  0.00  0.00  0.00  0.00  0.95  0.00  0.00
  WS02006229WS02006228    1.00   0.00  0.00  0.00  1.00  0.00  0.00  0.00  0.00  0.00
  WS02006256WS02006235    1.00   0.01  0.00  0.00  0.99  0.00  0.00  0.00  0.00  0.00
  WS02006253WS02006251    1.00   0.01  0.03  0.00  0.96  0.00  0.01  0.00  0.00  0.00
  WS02006252WS02006251    1.00   0.25  0.00  0.00  0.03  0.00  0.72  0.00  0.00  0.00
  WS02006251WS02006249    1.00   0.00  0.00  0.00  1.00  0.00  0.00  0.00  0.41  0.00
  WS02006249WS02006248    1.00   0.00  0.01  0.00  0.83  0.00  0.16  0.00  0.00  0.00
  WS02006248WS02006247    1.00   0.01  0.00  0.00  0.98  0.00  0.00  0.02  0.25  0.00
  WS02006247WS02006245    1.00   0.01  0.00  0.00  0.96  0.00  0.00  0.03  0.00  0.00
  WS02006245WS02006243    1.00   0.01  0.00  0.00  0.90  0.00  0.00  0.09  0.01  0.00
  WS02006243WS02006242    1.00   0.01  0.00  0.00  0.98  0.00  0.00  0.01  0.32  0.00
  WS02006242WS02006240    1.00   0.01  0.00  0.00  0.97  0.00  0.01  0.00  0.00  0.00
  WS02006240WS02006239    1.00   0.01  0.00  0.00  0.89  0.00  0.00  0.09  0.02  0.00
  WS02006239WS02006238    1.00   0.01  0.00  0.00  0.99  0.00  0.00  0.00  0.12  0.00
  WS02006238WS02006235    1.00   0.01  0.00  0.00  0.99  0.00  0.00  0.00  0.00  0.00
  WS02006235WS02006234    1.00   0.01  0.00  0.00  0.92  0.00  0.06  0.00  0.00  0.00
  WS02006234WS02006232    1.00   0.01  0.00  0.00  0.99  0.00  0.00  0.00  0.08  0.00
  WS02006232WS02006231    1.00   0.01  0.00  0.00  0.98  0.00  0.00  0.00  0.00  0.00
  WS02006231WS02006230    1.00   0.01  0.00  0.00  0.51  0.00  0.48  0.00  0.00  0.00
  WS02006230WS02006229    1.00   0.00  0.00  0.00  0.99  0.00  0.00  0.01  0.00  0.00
  WS02006228WS02006109    1.00   0.00  0.00  0.00  1.00  0.00  0.00  0.00  0.01  0.00
  WS02006116WS02004401    1.00   0.02  0.00  0.00  0.98  0.00  0.00  0.00  0.00  0.00
  WS02006115WS02006116    1.00   0.02  0.00  0.00  0.97  0.00  0.00  0.00  0.00  0.00
  WS02006113WS02006111    1.00   0.02  0.00  0.00  0.00  0.98  0.00  0.00  0.23  0.00
  WS02006112WS02006115    1.00   0.02  0.00  0.00  0.98  0.00  0.00  0.00  0.00  0.00
  WS02006111WS02006112    1.00   0.02  0.00  0.00  0.98  0.00  0.00  0.00  0.93  0.00
  WS02006110WS02006113    1.00   0.00  0.01  0.00  0.98  0.00  0.00  0.00  0.00  0.00
  WS02006109WS02006110    1.00   0.00  0.00  0.00  0.99  0.00  0.00  0.00  0.00  0.00
  WS02004411WS02004412    1.00   0.03  0.00  0.00  0.97  0.00  0.00  0.00  0.00  0.00
  WS02004401WS02004402    1.00   0.02  0.00  0.00  0.98  0.00  0.00  0.00  0.00  0.00
  WS02004413WS02003067    1.00   0.03  0.00  0.00  0.00  0.00  0.96  0.00  0.00  0.00
  WS02004412WS02004413    1.00   0.03  0.00  0.00  0.97  0.00  0.00  0.00  0.00  0.00
  WS02004410WS02004411    1.00   0.03  0.00  0.00  0.97  0.00  0.00  0.00  0.00  0.00
  WS02004409WS02004410    1.00   0.03  0.00  0.00  0.97  0.00  0.00  0.00  0.00  0.00
  WS02004407WS02004409    1.00   0.03  0.00  0.00  0.97  0.00  0.00  0.00  0.91  0.00
  WS02004406WS02004407    1.00   0.00  0.03  0.00  0.97  0.00  0.00  0.00  0.00  0.00
  WS02004405WS02004406    1.00   0.00  0.00  0.00  1.00  0.00  0.00  0.00  0.04  0.00
  WS02004404WS02004405    1.00   0.00  0.00  0.00  1.00  0.00  0.00  0.00  0.00  0.00
  WS02004403WS02004404    1.00   0.00  0.02  0.00  0.98  0.00  0.00  0.00  0.00  0.00
  WS02004402WS02004403    1.00   0.02  0.00  0.00  0.98  0.00  0.00  0.00  0.00  0.00
  WS02004139WS02001211    1.00   0.00  0.00  0.00  1.00  0.00  0.00  0.00  0.00  0.00
  WS02004138WS02004139    1.00   0.00  0.00  0.00  1.00  0.00  0.00  0.00  1.00  0.00
  WS02003067WS02003066    1.00   0.04  0.00  0.00  0.96  0.00  0.00  0.00  0.00  0.00
  WS02001213WS02003059    1.00   0.00  0.00  0.00  1.00  0.00  0.00  0.00  0.00  0.00
  WS02001212WS02001213    1.00   0.00  0.00  0.00  0.90  0.00  0.10  0.00  0.00  0.00
  WS02001211WS02001212    1.00   0.00  0.00  0.00  1.00  0.00  0.00  0.00  0.00  0.00
  WS02003072WS02003073    1.00   0.00  0.00  0.00  0.00  0.00  0.00  1.00  0.00  0.00
  WS02003069WS02003072    1.00   0.00  0.00  0.00  1.00  0.00  0.00  0.00  0.14  0.00
  WS02003060WS02003069    1.00   0.00  0.00  0.00  1.00  0.00  0.00  0.00  0.10  0.00
  WS02003059WS02003060    1.00   0.00  0.00  0.00  1.00  0.00  0.00  0.00  0.00  0.00
  HS02004901HS02004770    1.00   0.04  0.00  0.00  0.95  0.00  0.00  0.00  0.01  0.00
  HS02004876HS02004881    1.00   0.01  0.00  0.00  0.96  0.03  0.00  0.00  0.00  0.00
  HS02004870HS02004876    1.00   0.00  0.00  0.00  1.00  0.00  0.00  0.00  0.95  0.00
  HS02004842HS02004848    1.00   0.00  0.05  0.00  0.95  0.00  0.00  0.00  0.63  0.00
  HS02004837HS02004842    1.00   0.00  0.00  0.00  1.00  0.00  0.00  0.00  0.11  0.00
  HS02004830HS02004837    1.00   0.00  0.00  0.00  1.00  0.00  0.00  0.00  0.99  0.00
  HS02004824HS02004830    1.00   0.00  0.00  0.00  1.00  0.00  0.00  0.00  0.00  0.00
  HS02004817HS02004824    1.00   0.00  0.00  0.00  1.00  0.00  0.00  0.00  1.00  0.00
  HS02004770HS02004777    1.00   0.00  0.05  0.00  0.95  0.00  0.00  0.00  0.05  0.00
  HS02004799HS02004480    1.00   0.00  0.01  0.00  0.94  0.00  0.05  0.00  0.00  0.00
  HS02004792HS02004799    1.00   0.00  0.00  0.00  1.00  0.00  0.00  0.00  0.98  0.00
  HS02004788HS02004792    1.00   0.00  0.00  0.00  1.00  0.00  0.00  0.00  0.98  0.00
  HS02004785HS02004788    1.00   0.00  0.00  0.00  1.00  0.00  0.00  0.00  0.00  0.00
  HS02004777HS02004785    1.00   0.00  0.00  0.00  1.00  0.00  0.00  0.00  0.17  0.00
  HS02004480HS02004478    1.00   0.05  0.00  0.00  0.70  0.00  0.00  0.25  0.00  0.00
  HS02004479HS02004480    1.00   0.01  0.00  0.00  0.99  0.00  0.00  0.00  0.14  0.00
  HS02004862HS02004870    1.00   0.00  0.00  0.00  1.00  0.00  0.00  0.00  0.05  0.00
  HS02004848HS02004852    1.00   0.05  0.00  0.00  0.95  0.00  0.00  0.00  0.72  0.00
  HS02004856HS02004862    1.00   0.00  0.07  0.00  0.93  0.00  0.00  0.00  0.78  0.00
  HS02004852HS02004856    1.00   0.04  0.01  0.00  0.95  0.00  0.00  0.00  0.84  0.00
  HS02004802HS02004478    1.00   0.05  0.01  0.00  0.95  0.00  0.00  0.00  0.02  0.00
  HS02004478WS02006287    1.00   0.06  0.00  0.00  0.82  0.12  0.00  0.00  0.72  0.00
  HS02004817HS02004807    1.00   0.00  0.05  0.00  0.95  0.00  0.00  0.00  0.00  0.00
  HS02004807HS02004802    1.00   0.05  0.00  0.00  0.95  0.00  0.00  0.00  0.01  0.00
  YS02001759YS02001757    1.00   0.00  0.00  0.00  1.00  0.00  0.00  0.00  0.18  0.00
  YS02001762YS02001759    1.00   0.00  0.00  0.00  1.00  0.00  0.00  0.00  0.04  0.00
  YS02001765YS02001762    1.00   0.00  0.00  0.00  1.00  0.00  0.00  0.00  0.19  0.00
  YS02001770YS02001767    1.00   0.00  0.00  0.00  1.00  0.00  0.00  0.00  0.00  0.00
  YS02001774YS02001770    1.00   0.00  0.05  0.00  0.95  0.00  0.00  0.00  0.05  0.00
  YS02001779YS02001774    1.00   0.00  0.00  0.00  1.00  0.00  0.00  0.00  0.23  0.00
  YS02001649YS02001757    1.00   0.00  0.00  0.00  1.00  0.00  0.00  0.00  0.18  0.00
  YS02001767YS02001765    1.00   0.00  0.00  0.00  1.00  0.00  0.00  0.00  0.00  0.00
  YS02006561YS02001783    1.00   0.08  0.00  0.00  0.14  0.79  0.00  0.00  0.61  0.00
  YS02001783YS02001784    1.00   0.00  0.08  0.00  0.92  0.00  0.00  0.00  0.01  0.00
  YS02001784YS02001785    1.00   0.00  0.00  0.00  1.00  0.00  0.00  0.00  0.22  0.00
  YS02001788YS02001790    1.00   0.00  0.00  0.00  0.27  0.73  0.00  0.00  0.58  0.00
  YS02001790YS02001791    1.00   0.00  0.00  0.00  0.22  0.78  0.00  0.00  0.53  0.00
  YS02001791YS02001793    1.00   0.00  0.00  0.00  0.27  0.73  0.00  0.00  0.04  0.00
  YS02001910YS02001907    1.00   0.00  0.00  0.00  0.99  0.00  0.00  0.01  0.13  0.00
  YS02001786YS02001788    1.00   0.00  0.00  0.00  0.24  0.76  0.00  0.00  0.00  0.00
  YS02001915YS02001910    1.00   0.00  0.00  0.00  0.99  0.01  0.00  0.00  0.21  0.00
  YS02001918YS02001915    1.00   0.00  0.00  0.00  0.99  0.00  0.00  0.00  0.65  0.00
  YS02001923YS02001920    1.00   0.00  0.00  0.00  1.00  0.00  0.00  0.00  1.00  0.00
  YS02001926YS02001923    1.00   0.00  0.03  0.00  0.00  0.00  0.97  0.00  0.00  0.00
  YS02001929YS02001926    1.00   0.00  0.04  0.00  0.96  0.00  0.00  0.00  0.87  0.00
  YS02001920YS02001918    1.00   0.00  0.00  0.00  1.00  0.00  0.00  0.00  0.00  0.00
  YS02001629YS02163301    1.00   0.06  0.00  0.00  0.93  0.00  0.00  0.00  0.00  0.00
  YS02001619YS02001622    1.00   0.04  0.00  0.00  0.96  0.00  0.00  0.00  0.00  0.00
  YS02001622YS02001625    1.00   0.05  0.00  0.00  0.95  0.00  0.00  0.00  0.10  0.00
  YS02001625YS02001629    1.00   0.05  0.03  0.00  0.90  0.00  0.02  0.00  0.00  0.00
  YS02163301YS02001633    1.00   0.00  0.06  0.00  0.94  0.00  0.00  0.00  0.00  0.00
  YS02163601YS02164001    1.00   0.00  0.03  0.00  0.97  0.00  0.00  0.00  0.00  0.00
  YS02164001YS02001641    1.00   0.00  0.03  0.00  0.97  0.00  0.00  0.00  0.07  0.00
  YS02001641YS02001644    1.00   0.00  0.00  0.00  1.00  0.00  0.00  0.00  0.00  0.00
  YS02001647YS02001649    1.00   0.00  0.07  0.00  0.93  0.00  0.00  0.00  0.01  0.00
  YS02006553YS02006556    1.00   0.00  0.00  0.00  1.00  0.00  0.00  0.00  0.03  0.00
  YS02006556YS02006558    1.00   0.00  0.00  0.00  1.00  0.00  0.00  0.00  0.00  0.00
  YSB6556YSB1171          1.00   0.01  0.03  0.00  0.96  0.00  0.00  0.00  0.00  0.00
  YS02001907YS02006553    1.00   0.00  0.01  0.00  0.99  0.00  0.00  0.00  0.00  0.00
  YS02006558YS02006561    1.00   0.08  0.00  0.00  0.00  0.92  0.00  0.00  0.60  0.00
  YS02001633YS02163601    1.00   0.00  0.00  0.00  1.00  0.00  0.00  0.00  0.18  0.00
  YS02001644YS02001647    1.00   0.00  0.07  0.00  0.93  0.00  0.00  0.00  0.00  0.00
  YS02001745YS02001748    1.00   0.00  0.00  0.00  0.89  0.00  0.00  0.11  0.03  0.00
  YS02001748YS02001751    1.00   0.00  0.00  0.00  0.96  0.04  0.00  0.00  0.16  0.00
  YS02001751YS02001754    1.00   0.00  0.00  0.00  0.91  0.00  0.00  0.08  0.02  0.00
  YS02001754YS02001757    1.00   0.00  0.00  0.00  1.00  0.00  0.00  0.00  0.23  0.00
  YS02001882YS02001884    1.00   0.06  0.00  0.00  0.94  0.00  0.00  0.00  0.00  0.00
  YS02001884YS02001887    1.00   0.02  0.02  0.00  0.96  0.00  0.00  0.00  0.00  0.00
  YS02001890YS02001895    1.00   0.00  0.06  0.00  0.93  0.00  0.00  0.00  0.00  0.00
  YS02001895YS02001898    1.00   0.07  0.00  0.00  0.92  0.00  0.01  0.00  0.00  0.00
  YS02001898YS02001901    1.00   0.06  0.00  0.00  0.93  0.00  0.00  0.00  0.02  0.00
  YS02001901YS02001904    1.00   0.06  0.00  0.00  0.94  0.00  0.00  0.00  0.00  0.00
  YS02001904YS02001907    1.00   0.00  0.06  0.00  0.94  0.00  0.00  0.00  0.00  0.00
  YS02001887YS02001890    1.00   0.00  0.00  0.00  0.99  0.00  0.01  0.00  0.00  0.00
  YS02001652YS02001649    1.00   0.00  0.00  0.00  1.00  0.00  0.00  0.00  0.21  0.00
  YS02001655YS02001652    1.00   0.00  0.00  0.00  0.92  0.00  0.00  0.08  0.02  0.00
  YS02001658YS02001655    1.00   0.00  0.06  0.00  0.90  0.04  0.00  0.00  0.08  0.00
  YS02001661YS02001658    1.00   0.06  0.00  0.00  0.89  0.06  0.00  0.00  0.03  0.00
  YS02001664YS02001661    1.00   0.04  0.00  0.00  0.90  0.06  0.00  0.00  0.24  0.00
  YSB1154YSB6556          1.00   0.04  0.00  0.00  0.96  0.00  0.00  0.00  0.02  0.00
  YSB1174YSB1171          1.00   0.01  0.02  0.00  0.97  0.00  0.00  0.00  0.00  0.00
  YSB1171HS02004479       1.00   0.01  0.00  0.00  0.98  0.00  0.00  0.00  0.12  0.00
  HS02004881HS02006253    1.00   0.02  0.00  0.00  0.46  0.01  0.00  0.51  0.28  0.00
  YS02001793JiankangQianchi    1.00   0.00  0.00  0.00  0.60  0.40  0.00  0.00  0.48  0.00
  YS02001757CaochengTiaoxuchi    1.00   0.00  0.10  0.00  0.90  0.01  0.00  0.00  0.00  0.00
  WSF200WS02003060        1.00   0.00  0.01  0.00  0.88  0.12  0.00  0.00  0.61  0.00
  1                       1.00   0.00  0.00  0.00  0.00  1.00  0.00  0.00  0.52  0.00
  
  
  *************************
  Conduit Surcharge Summary
  *************************
  
  ----------------------------------------------------------------------------
                                                           Hours        Hours 
                         --------- Hours Full --------   Above Full   Capacity
  Conduit                Both Ends  Upstream  Dnstream   Normal Flow   Limited
  ----------------------------------------------------------------------------
  WS02006229WS02006228        1.62      1.83      1.62      3.16         1.62
  WS02006256WS02006235        4.97      4.97      6.57      3.71         0.01
  WS02006253WS02006251        0.57      0.57      0.59      0.01         0.02
  WS02006252WS02006251        0.59      0.59      0.97      0.86         0.01
  WS02006251WS02006249        0.57      0.57      0.61      0.45         0.32
  WS02006249WS02006248        0.58      0.58      0.61      1.65         0.01
  WS02006248WS02006247        0.61      0.61      0.67      0.01         0.01
  WS02006247WS02006245        0.67      0.68      0.67      2.18         0.66
  WS02006245WS02006243        0.68      0.68      0.72      0.34         0.31
  WS02006243WS02006242        0.74      0.74      0.87      0.01         0.01
  WS02006242WS02006240        0.83      0.83      0.92      0.83         0.01
  WS02006240WS02006239        0.85      0.85      0.90      0.48         0.40
  WS02006239WS02006238        0.98      0.98      1.13      0.50         0.42
  WS02006238WS02006235        1.12      1.12      1.22      0.01         0.01
  WS02006235WS02006234        0.89      0.89      1.07      4.56         0.01
  WS02006234WS02006232        0.95      0.95      1.27      0.42         0.44
  WS02006232WS02006231        0.58      0.58      1.27      0.52         0.01
  WS02006231WS02006230        0.37      0.37      0.61      5.00         0.01
  WS02006230WS02006229        2.50      2.87      2.50      5.50         2.50
  WS02006228WS02006109        1.74      2.20      1.74      4.18         1.74
  WS02006112WS02006115        0.01      0.01      0.46      0.01         0.01
  WS02006111WS02006112        0.01      0.01      3.27      0.01         0.01
  WS02006110WS02006113        0.01      0.01      1.99      0.01         0.01
  WS02006109WS02006110        0.40      0.40      2.20      0.41         0.01
  WS02004405WS02004406        0.01      0.01      0.01      0.40         0.01
  WS02004404WS02004405        0.01      0.01      0.01      5.31         0.01
  WS02003072WS02003073        0.01      0.01      0.01      5.20         0.01
  HS02004480HS02004478        0.01      0.01      0.01      0.18         0.01
  YS02001759YS02001757        5.62      5.62      5.65      0.01         0.01
  YS02001762YS02001759        5.60      5.60      5.62      0.01         0.01
  YS02001765YS02001762        5.58      5.58      5.60      0.01         0.01
  YS02001770YS02001767        5.56      5.57      5.57      0.01         0.60
  YS02001774YS02001770        5.56      5.56      5.60      0.01         0.01
  YS02001779YS02001774        5.39      5.39      5.60      0.01         0.01
  YS02001649YS02001757        5.60      5.60      5.65      0.01         0.01
  YS02001767YS02001765        5.57      5.57      5.58      0.01         0.01
  YS02006561YS02001783        0.01      0.01      0.22      0.01         0.01
  YS02001783YS02001784        0.21      0.22      0.26      0.01         0.01
  YS02001784YS02001785        0.22      0.26      0.22      1.22         0.22
  YS02001788YS02001790        0.17      0.17      0.91      0.01         0.01
  YS02001790YS02001791        0.91      0.91      1.01      0.01         0.01
  YS02001791YS02001793        1.01      1.01      1.47      0.01         0.01
  YS02001910YS02001907        0.01      0.01      0.69      0.01         0.01
  YS02001786YS02001788        0.17      0.22      0.17      0.88         0.16
  YS02001629YS02163301        5.55      5.55      5.56      0.01         0.01
  YS02001619YS02001622        5.06      5.06      5.15      0.01         0.01
  YS02001622YS02001625        5.15      5.15      5.50      0.01         0.01
  YS02001625YS02001629        5.08      5.08      5.50      0.01         0.01
  YS02163301YS02001633        5.56      5.56      5.58      0.01         0.01
  YS02163601YS02164001        5.58      5.58      5.60      0.01         0.01
  YS02164001YS02001641        5.58      5.58      5.58      0.01         0.02
  YS02001641YS02001644        5.58      5.58      5.59      0.01         0.75
  YS02001647YS02001649        5.46      5.46      5.60      0.01         0.01
  YS02006553YS02006556        0.01      0.01      0.78      0.01         0.01
  YS02006556YS02006558        0.14      0.14      0.88      0.01         0.01
  YS02001907YS02006553        1.29      1.29      1.50      0.01         0.01
  YS02006558YS02006561        0.01      0.01      0.01      1.15         0.01
  YS02001633YS02163601        5.58      5.58      5.60      0.01         0.01
  YS02001644YS02001647        5.46      5.46      5.59      0.01         0.01
  YS02001745YS02001748        0.01      0.01      4.84      0.01         0.01
  YS02001748YS02001751        4.90      4.90      5.12      0.01         0.01
  YS02001751YS02001754        5.12      5.12      5.40      0.01         0.01
  YS02001754YS02001757        5.44      5.44      5.65      0.01         0.01
  YS02001904YS02001907        0.01      0.01      0.81      0.01         0.01
  YS02001652YS02001649        5.48      5.48      5.60      0.01         0.01
  YS02001655YS02001652        5.14      5.14      5.43      0.01         0.01
  YS02001658YS02001655        4.86      4.86      5.14      0.01         0.01
  YS02001661YS02001658        0.04      0.04      4.86      0.01         0.01
  YS02001664YS02001661        0.01      0.01      0.32      0.01         0.01
  HS02004881HS02006253        0.01      0.01      0.37      0.01         0.01
  YS02001793JiankangQianchi        1.33      1.33      3.73      0.01         0.01
  YS02001757CaochengTiaoxuchi        4.84      4.84      5.65      0.01         0.01
  
  
  ***************
  Pumping Summary
  ***************
  
  ---------------------------------------------------------------------------------------------------------
                                                  Min       Avg       Max     Total     Power    % Time Off
                        Percent   Number of      Flow      Flow      Flow    Volume     Usage    Pump Curve
  Pump                 Utilized   Start-Ups       LPS       LPS       LPS  10^6 ltr     Kw-hr    Low   High
  ---------------------------------------------------------------------------------------------------------
  CC-Pump-1               40.41           5      0.00    137.23    200.00     1.500      1.46    0.0    0.0
  CC-Pump-2               21.28           4      0.00    106.28    200.00     0.720      0.91    0.0    0.0
  JK-Pump-1               51.07           5      0.00    176.93    300.00     2.575     46.76    0.0    0.0
  JK-Pump-2               42.55           4      0.00    259.27    683.00     3.359     59.11    0.0   96.8
  XR-Pump-1               97.87           1      0.00     90.58     95.00     2.537     41.83    0.0    0.0
  XR-Pump-2               93.63           2      0.00     89.23     95.00     2.309     36.75    0.0    0.0
  XR-Pump-3               87.25           4      0.00     89.49     95.00     2.138     33.01    0.0    0.0
  XR-Pump-4               87.25           4      0.00     89.49     95.00     2.138     33.01    0.0    0.0
  
  
  ***************************
  Link Pollutant Load Summary
  ***************************
  
  ------------------------------------------------------------------------------------------
                                 COD            SS            TN            TP         NH4-N
  Link                            kg            kg            kg            kg            kg
  ------------------------------------------------------------------------------------------
  WS02003066WSF200           441.941       786.352        14.331         1.382         7.891
  WS02006287WS02006284       166.216       299.433         7.383         0.804         4.284
  WS02006284WS02006280       166.635       300.109         7.423         0.809         4.308
  WS02006280WS02006229       166.614       300.066         7.422         0.809         4.308
  WS02006229WS02006228       444.208       790.516        13.968         1.326         7.641
  WS02006256WS02006235        99.038       173.084         2.407         0.196         1.244
  WS02006253WS02006251        31.808        59.519         0.810         0.067         0.418
  WS02006252WS02006251       169.258       296.995         3.871         0.297         1.946
  WS02006251WS02006249       192.893       342.221         4.497         0.350         2.273
  WS02006249WS02006248       186.827       331.617         4.357         0.340         2.203
  WS02006248WS02006247       186.760       331.520         4.360         0.340         2.205
  WS02006247WS02006245       186.209       330.568         4.346         0.339         2.198
  WS02006245WS02006243       185.554       329.492         4.327         0.337         2.187
  WS02006243WS02006242       186.202       330.684         4.345         0.339         2.197
  WS02006242WS02006240       187.146       332.375         4.362         0.340         2.205
  WS02006240WS02006239       188.733       335.179         4.401         0.343         2.225
  WS02006239WS02006238       191.076       339.154         4.470         0.349         2.263
  WS02006238WS02006235       192.196       340.901         4.503         0.352         2.281
  WS02006235WS02006234       280.355       495.196         6.625         0.524         3.375
  WS02006234WS02006232       280.104       494.751         6.624         0.524         3.375
  WS02006232WS02006231       279.357       493.435         6.603         0.522         3.364
  WS02006231WS02006230       278.703       492.310         6.587         0.521         3.356
  WS02006230WS02006229       279.092       493.103         6.605         0.523         3.366
  WS02006228WS02006109       443.661       789.563        13.953         1.324         7.633
  WS02006116WS02004401       452.080       803.829        14.630         1.409         8.052
  WS02006115WS02006116       452.866       805.173        14.659         1.412         8.068
  WS02006113WS02006111       449.978       799.478        14.659         1.414         8.078
  WS02006112WS02006115       453.940       806.987        14.713         1.418         8.100
  WS02006111WS02006112       449.662       798.938        14.646         1.413         8.071
  WS02006110WS02006113       450.585       800.506        14.690         1.418         8.097
  WS02006109WS02006110       451.852       802.623        14.764         1.426         8.141
  WS02004411WS02004412       445.361       792.198        14.462         1.395         7.965
  WS02004401WS02004402       451.090       802.153        14.584         1.404         8.025
  WS02004413WS02003067       442.656       787.589        14.349         1.383         7.900
  WS02004412WS02004413       444.164       790.140        14.422         1.391         7.943
  WS02004410WS02004411       446.293       793.802        14.491         1.398         7.981
  WS02004409WS02004410       447.224       795.396        14.524         1.401         8.000
  WS02004407WS02004409       447.901       796.569        14.541         1.402         8.008
  WS02004406WS02004407       447.991       796.740        14.533         1.401         8.003
  WS02004405WS02004406       449.477       799.241        14.609         1.410         8.048
  WS02004404WS02004405       450.021       800.231        14.597         1.407         8.038
  WS02004403WS02004404       449.441       799.355        14.512         1.396         7.984
  WS02004402WS02004403       450.289       800.787        14.553         1.400         8.007
  WS02004139WS02001211      1391.190      2245.986       125.634        15.561        78.097
  WS02004138WS02004139      1392.575      2248.237       125.750        15.575        78.169
  WS02003067WS02003066       442.178       786.757        14.340         1.383         7.896
  WS02001213WS02003059      1436.082      2317.759       129.969        16.103        80.808
  WS02001212WS02001213      1440.836      2325.408       130.405        16.158        81.079
  WS02001211WS02001212      1440.484      2324.841       130.373        16.154        81.059
  WS02003072WS02003073      1989.867      3282.665       155.236        18.855        95.542
  WS02003069WS02003072      1992.991      3287.844       155.480        18.885        95.692
  WS02003060WS02003069      1992.484      3287.169       155.362        18.869        95.616
  WS02003059WS02003060      1436.749      2318.809       130.041        16.113        80.853
  HS02004901HS02004770         5.331        10.016         0.101         0.007         0.047
  HS02004876HS02004881        20.132        38.440         0.500         0.040         0.254
  HS02004870HS02004876        15.278        29.035         0.417         0.034         0.216
  HS02004842HS02004848         2.793         5.105         0.060         0.004         0.027
  HS02004837HS02004842         7.399        12.427         0.528         0.063         0.321
  HS02004830HS02004837        54.924        91.627         4.351         0.531         2.686
  HS02004824HS02004830        55.673        92.828         4.423         0.540         2.731
  HS02004817HS02004824        66.942       114.359         4.679         0.558         2.859
  HS02004770HS02004777        20.351        38.586         0.427         0.028         0.195
  HS02004799HS02004480        74.860       136.429         2.569         0.256         1.413
  HS02004792HS02004799        68.429       123.564         2.498         0.255         1.387
  HS02004788HS02004792        41.690        75.008         1.843         0.197         1.056
  HS02004785HS02004788        21.850        40.996         0.580         0.048         0.291
  HS02004777HS02004785        21.288        40.086         0.529         0.041         0.260
  HS02004480HS02004478        93.151       171.918         2.837         0.273         1.533
  HS02004479HS02004480        22.471        42.142         0.664         0.066         0.367
  HS02004862HS02004870        11.363        21.167         0.339         0.030         0.179
  HS02004848HS02004852         3.881         7.193         0.082         0.005         0.037
  HS02004856HS02004862         7.140        13.674         0.144         0.009         0.067
  HS02004852HS02004856         3.877         7.185         0.082         0.005         0.037
  HS02004802HS02004478        73.399       128.072         4.574         0.535         2.768
  HS02004478WS02006287       166.405       299.752         7.399         0.806         4.293
  HS02004817HS02004807        65.583       112.184         4.550         0.542         2.779
  HS02004807HS02004802        74.000       129.027         4.633         0.542         2.805
  YS02001759YS02001757       206.743       363.390         4.366         0.304         2.153
  YS02001762YS02001759       102.652       181.878         2.367         0.170         1.190
  YS02001765YS02001762       102.133       180.996         2.381         0.172         1.201
  YS02001770YS02001767        99.839       177.292         2.092         0.134         1.016
  YS02001774YS02001770        20.481        35.975         0.437         0.028         0.213
  YS02001779YS02001774        19.881        34.773         0.538         0.044         0.282
  YS02001649YS02001757       263.958       453.322         5.498         0.387         2.650
  YS02001767YS02001765       102.095       180.900         2.394         0.174         1.209
  YS02006561YS02001783       449.706       784.523        10.737         0.859         5.517
  YS02001783YS02001784       449.662       784.475        10.734         0.859         5.516
  YS02001784YS02001785       457.048       796.316        11.449         0.948         5.962
  YS02001788YS02001790       457.747       797.473        11.523         0.958         6.009
  YS02001790YS02001791       458.799       799.170        11.623         0.970         6.072
  YS02001791YS02001793       458.726       799.054        11.618         0.970         6.069
  YS02001910YS02001907       149.995       256.561         4.747         0.420         2.578
  YS02001786YS02001788       457.289       796.719        11.477         0.952         5.980
  YS02001915YS02001910       149.909       256.388         4.697         0.413         2.545
  YS02001918YS02001915        73.464       119.956         3.040         0.320         1.753
  YS02001923YS02001920        53.516        88.078         1.093         0.076         0.535
  YS02001926YS02001923        53.167        87.521         1.054         0.071         0.510
  YS02001929YS02001926        52.921        87.116         1.023         0.067         0.491
  YS02001920YS02001918        73.431       119.944         3.011         0.316         1.734
  YS02001629YS02163301        60.079       102.422         1.296         0.082         0.602
  YS02001619YS02001622        62.759       106.570         1.359         0.086         0.629
  YS02001622YS02001625        61.690       104.923         1.333         0.084         0.617
  YS02001625YS02001629        60.618       103.323         1.307         0.083         0.606
  YS02163301YS02001633        60.980       104.016         1.311         0.084         0.610
  YS02163601YS02164001       166.709       282.524         3.458         0.243         1.658
  YS02164001YS02001641       166.453       282.114         3.441         0.241         1.648
  YS02001641YS02001644       167.408       283.701         3.451         0.241         1.652
  YS02001647YS02001649       232.363       396.988         4.793         0.334         2.311
  YS02006553YS02006556       324.555       564.206         8.080         0.671         4.217
  YS02006556YS02006558       324.513       564.126         8.049         0.667         4.196
  YSB6556YSB1171              12.279        23.210         0.293         0.027         0.155
  YS02001907YS02006553       324.588       564.283         8.080         0.671         4.217
  YS02006558YS02006561       449.706       784.514        10.735         0.859         5.516
  YS02001633YS02163601       167.362       283.509         3.440         0.239         1.643
  YS02001644YS02001647       236.244       403.537         4.849         0.338         2.335
  YS02001745YS02001748        99.158       171.202         2.997         0.255         1.608
  YS02001748YS02001751        95.915       165.351         2.979         0.258         1.609
  YS02001751YS02001754        95.340       164.433         2.991         0.261         1.619
  YS02001754YS02001757        96.174       165.722         3.158         0.284         1.727
  YS02001882YS02001884         2.355         4.013         0.052         0.004         0.026
  YS02001884YS02001887         4.924         8.524         0.106         0.009         0.054
  YS02001890YS02001895       175.836       309.532         3.363         0.254         1.654
  YS02001895YS02001898       175.682       309.313         3.357         0.253         1.651
  YS02001898YS02001901       175.547       309.116         3.354         0.253         1.649
  YS02001901YS02001904       175.548       309.151         3.371         0.256         1.661
  YS02001904YS02001907       176.131       310.127         3.449         0.266         1.710
  YS02001887YS02001890       176.687       310.844         3.424         0.261         1.692
  YS02001652YS02001649        62.810       108.734         1.383         0.101         0.652
  YS02001655YS02001652        63.666       110.107         1.405         0.102         0.663
  YS02001658YS02001655        63.296       109.482         1.315         0.090         0.604
  YS02001661YS02001658        69.540       120.456         1.443         0.099         0.663
  YS02001664YS02001661        78.346       134.855         1.638         0.112         0.751
  YSB1154YSB6556              11.788        22.426         0.233         0.019         0.117
  YSB1174YSB1171               8.369        15.996         0.200         0.018         0.105
  YSB1171HS02004479           22.396        42.032         0.658         0.065         0.363
  HS02004881HS02006253        22.713        43.534         0.546         0.042         0.276
  YS02001793JiankangQianchi       459.102       799.663        11.613         0.968         6.064
  YS02001757CaochengTiaoxuchi       434.482       757.026         9.964         0.759         5.002
  WSF200WS02003060           441.822       786.193        14.330         1.382         7.891
  1                         2003.138      3303.890       156.622        19.030        96.412
  CC-Pump-1                  114.650       201.265         2.618         0.201         1.316
  CC-Pump-2                   54.480        95.520         1.245         0.095         0.626
  JK-Pump-1                  101.171       177.054         2.428         0.196         1.251
  JK-Pump-2                  170.290       298.988         4.079         0.330         2.102
  XR-Pump-1                  405.449       653.851        36.886         4.574        22.945
  XR-Pump-2                  354.575       572.338        32.057         3.971        19.929
  XR-Pump-3                  317.788       513.458        28.542         3.532        17.734
  XR-Pump-4                  317.788       513.458        28.542         3.532        17.734
  

  Analysis begun on:  Sun Jul 11 10:48:16 2021
  Analysis ended on:  Sun Jul 11 10:48:19 2021
  Total elapsed time: 00:00:03