
  EPA STORM WATER MANAGEMENT MODEL - VERSION 5.1 (Build 5.3.0.dev0)
  --------------------------------------------------------------

  WARNING 04: minimum elevation drop used for Conduit WS02004404WS02004405
  WARNING 03: negative offset ignored for Link YS02001904YS02001907
  
  *********************************************************
  NOTE: The summary statistics displayed in this report are
  based on results found at every computational time step,  
  not just on results from each reporting time step.
  *********************************************************
  
  ****************
  Analysis Options
  ****************
  Flow Units ............... LPS
  Process Models:
    Rainfall/Runoff ........ YES
    RDII ................... NO
    Snowmelt ............... NO
    Groundwater ............ NO
    Flow Routing ........... YES
    Ponding Allowed ........ NO
    Water Quality .......... YES
  Infiltration Method ...... HORTON
  Flow Routing Method ...... DYNWAVE
  Surcharge Method ......... EXTRAN
  Starting Date ............ 08/28/2015 08:00:00
  Ending Date .............. 08/28/2015 15:50:00
  Antecedent Dry Days ...... 8.0
  Report Time Step ......... 00:01:00
  Wet Time Step ............ 00:01:00
  Dry Time Step ............ 00:01:00
  Routing Time Step ........ 5.00 sec
  Variable Time Step ....... YES
  Maximum Trials ........... 8
  Number of Threads ........ 4
  Head Tolerance ........... 0.001500 m
  
  
  **************************        Volume         Depth
  Runoff Quantity Continuity     hectare-m            mm
  **************************     ---------       -------
  Total Precipitation ......         2.663         5.830
  Evaporation Loss .........         0.000         0.000
  Infiltration Loss ........         0.571         1.250
  Surface Runoff ...........         1.549         3.392
  Final Storage ............         0.543         1.189
  Continuity Error (%) .....        -0.022
  
  
  **************************           COD            SS            TN            TP         NH4-N
  Runoff Quality Continuity             kg            kg            kg            kg            kg
  **************************    ----------    ----------    ----------    ----------    ----------
  Initial Buildup ..........     41378.656     70582.865      1804.177       168.684      1032.807
  Surface Buildup ..........        14.902        19.560         2.954         0.273         1.747
  Wet Deposition ...........         0.000         0.000         0.000         0.000         0.000
  Sweeping Removal .........         0.000         0.000         0.000         0.000         0.000
  Infiltration Loss ........        28.166        49.601         0.556         0.037         0.261
  BMP Removal ..............         0.000         0.000         0.000         0.000         0.000
  Surface Runoff ...........       933.342      1594.685        18.875         1.225         8.897
  Remaining Buildup ........     40431.749     68957.628      1787.693       167.693      1025.393
  Continuity Error (%) .....         0.001         0.001         0.000         0.000         0.000
  
  
  **************************        Volume        Volume
  Flow Routing Continuity        hectare-m      10^6 ltr
  **************************     ---------     ---------
  Dry Weather Inflow .......         0.616         6.165
  Wet Weather Inflow .......         1.548        15.484
  Groundwater Inflow .......         0.000         0.000
  RDII Inflow ..............         0.000         0.000
  External Inflow ..........         0.102         1.024
  External Outflow .........         1.501        15.007
  Flooding Loss ............         0.426         4.264
  Evaporation Loss .........         0.000         0.000
  Exfiltration Loss ........         0.000         0.000
  Initial Stored Volume ....         0.076         0.761
  Final Stored Volume ......         0.545         5.452
  Continuity Error (%) .....        -5.502
  
  
  **************************           COD            SS            TN            TP         NH4-N
  Quality Routing Continuity            kg            kg            kg            kg            kg
  **************************    ----------    ----------    ----------    ----------    ----------
  Dry Weather Inflow .......      1541.201      2465.922       147.955        18.494        92.472
  Wet Weather Inflow .......       933.048      1594.226        18.869         1.225         8.894
  Groundwater Inflow .......         0.000         0.000         0.000         0.000         0.000
  RDII Inflow ..............         0.000         0.000         0.000         0.000         0.000
  External Inflow ..........       183.418       293.469        17.608         2.201        11.005
  External Outflow .........      1983.450      3231.013       162.956        19.934       100.683
  Flooding Loss ............       209.682       351.819         5.444         0.450         2.832
  Exfiltration Loss ........         0.000         0.000         0.000         0.000         0.000
  Mass Reacted .............         0.000         0.000         0.000         0.000         0.000
  Initial Stored Mass ......         0.000         0.000         0.000         0.000         0.000
  Final Stored Mass ........       310.208       513.224         9.237         0.813         4.921
  Continuity Error (%) .....         5.807         5.916         3.684         3.300         3.502
  
  
  *************************
  Highest Continuity Errors
  *************************
  Node YS02001774 (33.42%)
  Node JK-storage (-25.97%)
  Node HS02004842 (24.51%)
  Node YS02001884 (19.19%)
  Node YSB1171 (5.61%)
  
  
  ***************************
  Time-Step Critical Elements
  ***************************
  Link WS02006252WS02006251 (60.32%)
  Link WS02006280WS02006229 (12.33%)
  Link WS02006238WS02006235 (9.67%)
  Link YS02001793JiankangQianchi (6.99%)
  Link WS02003066WSF200 (1.38%)
  
  
  ********************************
  Highest Flow Instability Indexes
  ********************************
  Link WS02006113WS02006111 (43)
  Link WS02006111WS02006112 (18)
  Link YS02001779YS02001774 (16)
  Link YS02001774YS02001770 (16)
  Link YS02001619YS02001622 (16)
  
  
  *************************
  Routing Time Step Summary
  *************************
  Minimum Time Step           :     0.50 sec
  Average Time Step           :     1.47 sec
  Maximum Time Step           :     5.00 sec
  Percent in Steady State     :     0.00
  Average Iterations per Step :     3.28
  Percent Not Converging      :    12.36
  
  
  ***************************
  Subcatchment Runoff Summary
  ***************************
  
  ------------------------------------------------------------------------------------------------------------------------------
                            Total      Total      Total      Total     Imperv       Perv      Total       Total     Peak  Runoff
                           Precip      Runon       Evap      Infil     Runoff     Runoff     Runoff      Runoff   Runoff   Coeff
  Subcatchment                 mm         mm         mm         mm         mm         mm         mm    10^6 ltr      LPS
  ------------------------------------------------------------------------------------------------------------------------------
  sub0                       5.83       0.00       0.00       0.41       5.38       0.00       5.38        0.00     1.68   0.923
  sub1                       5.83       0.00       0.00       0.64       5.10       0.00       5.10        0.03     9.77   0.875
  sub2                       5.83       0.00       0.00       2.16       3.59       0.00       3.59        0.03     8.77   0.616
  sub3                       5.83       0.00       0.00       2.16       3.56       0.00       3.56        0.08    18.29   0.610
  sub4                       5.83       0.00       0.00       0.64       4.96       0.00       4.96        0.10    20.69   0.851
  sub5                       5.83       0.00       0.00       0.41       5.33       0.00       5.33        0.06    17.37   0.914
  sub7                       5.83       0.00       0.00       0.52       5.24       0.00       5.25        0.02     5.90   0.900
  sub8                       5.83       0.00       0.00       0.52       5.24       0.00       5.24        0.03    10.58   0.898
  sub9                       5.83       0.00       0.00       0.52       5.23       0.00       5.23        0.03     7.87   0.898
  sub10                      5.83       0.00       0.00       0.47       5.28       0.00       5.28        0.06    17.24   0.906
  sub11                      5.83       0.00       0.00       0.47       5.30       0.00       5.30        0.06    19.82   0.909
  sub12                      5.83       0.00       0.00       0.76       5.02       0.00       5.03        0.04    16.03   0.862
  sub14                      5.83       0.00       0.00       0.52       5.23       0.00       5.23        0.05    15.42   0.897
  sub15                      5.83       0.00       0.00       1.75       4.02       0.00       4.02        0.07    21.02   0.690
  sub16                      5.83       0.00       0.00       1.92       3.87       0.00       3.87        0.04    14.30   0.663
  sub17                      5.83       0.00       0.00       1.86       3.92       0.00       3.92        0.03    11.65   0.673
  sub22                      5.83       0.00       0.00       2.51       3.28       0.00       3.28        0.21    67.60   0.563
  sub23                      5.83       0.00       0.00       2.16       3.63       0.00       3.63        0.17    57.29   0.623
  sub60                      5.83       0.00       0.00       0.70       3.73       0.00       3.73        1.13   106.37   0.639
  sub61                      5.83       0.00       0.00       0.99       3.93       0.00       3.93        1.21   133.48   0.674
  sub62                      5.83       0.00       0.00       0.47       4.23       0.00       4.23        1.30   136.40   0.725
  sub63                      5.83       0.00       0.00       1.69       3.48       0.00       3.48        1.05   124.58   0.597
  sub64                      5.83       0.00       0.00       0.87       3.57       0.00       3.57        1.08   101.04   0.612
  sub65                      5.83       0.00       0.00       0.76       3.61       0.00       3.61        1.11   102.54   0.620
  sub66                      5.83       0.00       0.00       1.69       3.10       0.00       3.10        0.95    92.60   0.531
  sub67                      5.83       0.00       0.00       0.47       4.59       0.00       4.59        1.42   175.10   0.787
  sub68                      5.83       0.00       0.00       0.82       4.16       0.00       4.16        1.28   147.58   0.714
  sub69                      5.83       0.00       0.00       0.87       4.44       0.00       4.44        1.04   146.46   0.761
  sub70                      5.83       4.53       0.00       3.51       5.60       0.01       5.61        1.28   121.86   0.542
  sub71                      5.83       0.00       0.00       0.47       4.07       0.00       4.07        0.96    95.19   0.697
  sub72                      5.83       0.00       0.00       0.41       2.97       0.00       2.97        0.60    46.00   0.509
  1                          5.83       5.46       0.00       1.32       5.83       0.96       6.80        1.60   117.90   0.602
  2                          5.83       0.00       0.00       2.91       1.33       0.33       1.66        0.67    90.05   0.285
  
  
  ****************************
  Subcatchment Washoff Summary
  ****************************
  
  ------------------------------------------------------------------------------------------
                                 COD            SS            TN            TP         NH4-N
  Subcatchment                    kg            kg            kg            kg            kg
  ------------------------------------------------------------------------------------------
  sub0                         0.888         1.662         0.015         0.001         0.007
  sub1                         3.592         6.794         0.067         0.005         0.032
  sub2                         2.049         3.726         0.045         0.003         0.021
  sub3                         4.946         8.867         0.108         0.007         0.049
  sub4                         7.848        14.714         0.161         0.009         0.077
  sub5                         8.279        15.467         0.145         0.011         0.070
  sub7                         1.909         3.690         0.036         0.002         0.017
  sub8                         2.876         5.663         0.058         0.003         0.028
  sub9                         2.436         4.732         0.047         0.003         0.023
  sub10                        6.877        13.023         0.125         0.009         0.060
  sub11                        6.840        13.148         0.128         0.008         0.061
  sub12                        5.730        10.842         0.102         0.008         0.049
  sub14                        5.169         9.947         0.098         0.006         0.047
  sub15                        6.046        11.075         0.118         0.008         0.055
  sub16                        3.853         7.071         0.074         0.005         0.034
  sub17                        3.527         6.414         0.065         0.005         0.030
  sub22                       17.811        31.936         0.345         0.025         0.159
  sub23                       10.961        20.407         0.243         0.015         0.110
  sub60                       60.036       101.779         1.276         0.073         0.609
  sub61                       76.197       128.927         1.476         0.096         0.707
  sub62                       80.327       138.387         1.654         0.099         0.790
  sub63                       57.139        95.500         1.229         0.083         0.560
  sub64                       71.532       116.685         1.369         0.096         0.648
  sub65                       73.336       120.150         1.416         0.097         0.672
  sub66                       43.144        71.190         0.962         0.060         0.444
  sub67                      120.936       207.177         2.197         0.156         1.057
  sub68                       85.742       146.924         1.717         0.110         0.815
  sub69                       80.523       140.422         1.558         0.105         0.739
  sub70                      121.867       211.837         2.559         0.170         1.181
  sub71                       53.131        92.228         1.171         0.064         0.558
  sub72                       34.991        55.962         0.689         0.045         0.330
  1                           65.336       114.467         1.420         0.094         0.645
  2                            9.857        16.128         0.320         0.019         0.133
  ------------------------------------------------------------------------------------------
  System                    1135.731      1946.944        22.992         1.500        10.817
  
  
  ******************
  Node Depth Summary
  ******************
  
  ---------------------------------------------------------------------------------
                                 Average  Maximum  Maximum  Time of Max    Reported
                                   Depth    Depth      HGL   Occurrence   Max Depth
  Node                 Type       Meters   Meters   Meters  days hr:min      Meters
  ---------------------------------------------------------------------------------
  WS02001211           JUNCTION     0.71     0.79     5.63     0  05:10        0.79
  WS02001212           JUNCTION     0.43     0.51     5.57     0  05:10        0.51
  WS02001213           JUNCTION     0.66     0.76     5.52     0  05:10        0.76
  WS02003069           JUNCTION     0.44     0.59     5.17     0  05:12        0.59
  WS02003072           JUNCTION     0.51     0.64     5.01     0  05:12        0.64
  WS02003073           JUNCTION     0.31     0.40     4.46     0  05:13        0.40
  WS02003060           JUNCTION     0.40     0.52     5.45     0  05:11        0.52
  WS02003066           JUNCTION     0.21     0.30     5.85     0  05:17        0.30
  WS02003059           JUNCTION     0.71     0.81     5.50     0  05:11        0.81
  WS02003067           JUNCTION     0.54     0.70     6.02     0  05:15        0.70
  WS02004401           JUNCTION     0.63     0.86     6.86     0  05:15        0.86
  WS02004402           JUNCTION     0.67     0.88     6.84     0  05:12        0.88
  WS02004403           JUNCTION     0.69     0.90     6.83     0  05:13        0.90
  WS02004404           JUNCTION     0.76     0.97     6.82     0  05:16        0.97
  WS02004406           JUNCTION     0.77     0.96     6.79     0  05:13        0.96
  WS02004409           JUNCTION     0.44     0.67     6.44     0  05:13        0.67
  WS02004410           JUNCTION     0.46     0.69     6.41     0  05:14        0.69
  WS02004411           JUNCTION     0.48     0.70     6.38     0  05:14        0.70
  WS02004412           JUNCTION     0.50     0.70     6.34     0  05:14        0.70
  WS02004413           JUNCTION     0.66     0.86     6.33     0  05:15        0.86
  WS02004405           JUNCTION     0.76     0.96     6.81     0  05:13        0.96
  WS02006109           JUNCTION     0.71     0.99     7.60     0  04:58        0.98
  WS02006110           JUNCTION     0.71     0.93     7.51     0  04:59        0.93
  WS02006111           JUNCTION     0.20     0.29     7.00     0  05:05        0.29
  WS02006112           JUNCTION     0.80     1.07     6.95     0  05:13        1.07
  WS02006113           JUNCTION     0.31     0.46     7.35     0  04:59        0.46
  WS02006115           JUNCTION     0.52     0.76     6.90     0  05:15        0.76
  WS02006116           JUNCTION     0.60     0.84     6.88     0  05:12        0.84
  WS02006230           JUNCTION     0.69     1.11     7.86     0  04:58        1.11
  WS02006231           JUNCTION     0.46     1.21     8.33     0  06:43        0.86
  WS02006232           JUNCTION     0.59     1.12     8.16     0  06:43        1.06
  WS02006234           JUNCTION     0.52     1.22     8.38     0  06:43        1.07
  WS02006235           JUNCTION     0.56     1.31     8.47     0  06:43        1.15
  WS02006238           JUNCTION     0.58     1.36     8.51     0  06:43        1.19
  WS02006240           JUNCTION     0.49     1.48     8.77     0  06:43        1.13
  WS02006242           JUNCTION     0.54     1.50     8.77     0  06:43        1.21
  WS02006243           JUNCTION     0.43     1.39     8.81     0  06:43        1.12
  WS02006245           JUNCTION     0.42     1.40     8.89     0  06:43        1.10
  WS02006247           JUNCTION     0.43     1.24     8.74     0  06:43        1.13
  WS02006248           JUNCTION     0.38     1.10     8.69     0  03:41        1.07
  WS02006249           JUNCTION     0.41     1.09     8.69     0  04:57        1.09
  WS02006239           JUNCTION     0.54     1.42     8.62     0  06:43        1.17
  WS02006251           JUNCTION     0.39     1.18     8.85     0  04:57        1.17
  WS02006252           JUNCTION     0.28     0.72     8.96     0  04:57        0.71
  WS02006253           JUNCTION     0.42     1.23     8.87     0  04:57        1.21
  WS02006256           JUNCTION     1.45     2.35     9.28     0  00:00        2.35
  WS02004138           JUNCTION     0.17     0.20     7.45     0  00:00        0.19
  WS02004139           JUNCTION     0.66     0.74     5.65     0  05:10        0.74
  WS02004407           JUNCTION     0.20     0.30     6.61     0  05:06        0.30
  WS02006228           JUNCTION     0.71     1.03     7.68     0  04:58        1.02
  WS02006229           JUNCTION     0.69     1.03     7.72     0  04:58        1.02
  WS02006280           JUNCTION     0.05     0.16     8.43     0  02:13        0.16
  WS02006284           JUNCTION     0.34     0.51     8.91     0  02:13        0.51
  WS02006287           JUNCTION     0.07     0.24     9.20     0  02:12        0.24
  WSF200               JUNCTION     0.19     0.31     5.55     0  05:18        0.31
  HS02004901           JUNCTION     0.11     0.25    10.08     0  02:10        0.25
  HS02004881           JUNCTION     0.01     0.03     9.06     0  02:12        0.03
  HS02004876           JUNCTION     0.03     0.11     9.14     0  02:09        0.11
  HS02004870           JUNCTION     0.01     0.05     9.34     0  02:13        0.05
  HS02004862           JUNCTION     0.01     0.06     9.44     0  02:14        0.06
  HS02004856           JUNCTION     0.07     0.11     9.54     0  02:13        0.11
  HS02004852           JUNCTION     0.01     0.03     9.55     0  02:14        0.03
  HS02004848           JUNCTION     0.01     0.03     9.63     0  02:13        0.03
  HS02004842           JUNCTION     0.33     0.36     9.63     0  02:12        0.36
  HS02004837           JUNCTION     0.03     0.05     9.63     0  02:12        0.05
  HS02004830           JUNCTION     0.04     0.07     9.54     0  02:13        0.07
  HS02004824           JUNCTION     0.02     0.05     9.45     0  02:15        0.05
  HS02004817           JUNCTION     0.42     0.55     9.40     0  02:13        0.55
  HS02004807           JUNCTION     0.11     0.23     9.40     0  02:13        0.23
  HS02004802           JUNCTION     0.15     0.26     9.39     0  02:13        0.26
  HS02004799           JUNCTION     0.09     0.29     9.50     0  02:11        0.29
  HS02004792           JUNCTION     0.02     0.11     9.64     0  02:10        0.11
  HS02004788           JUNCTION     0.02     0.09     9.98     0  02:11        0.09
  HS02004785           JUNCTION     0.03     0.15    10.05     0  02:11        0.15
  HS02004777           JUNCTION     0.13     0.27    10.07     0  02:10        0.27
  HS02004770           JUNCTION     0.10     0.24    10.07     0  02:10        0.24
  HS02004480           JUNCTION     0.06     0.23     9.47     0  02:11        0.23
  HS02004479           JUNCTION     0.09     0.26     9.47     0  02:11        0.26
  HS02004478           JUNCTION     0.05     0.15     9.38     0  02:12        0.15
  YS02001745           JUNCTION     0.64     0.86     8.37     0  04:16        0.86
  YS02001748           JUNCTION     1.02     1.30     8.38     0  04:16        1.29
  YS02001751           JUNCTION     1.20     1.50     8.38     0  04:21        1.50
  YS02001754           JUNCTION     1.44     1.77     8.38     0  04:21        1.76
  YS02001762           JUNCTION     1.64     2.00     8.40     0  04:21        1.98
  YS02001765           JUNCTION     1.59     1.95     8.40     0  04:21        1.93
  YS02001767           JUNCTION     1.55     1.91     8.40     0  04:21        1.89
  YS02001770           JUNCTION     1.55     1.89     8.39     0  04:21        1.88
  YS02001774           JUNCTION     1.62     1.96     8.38     0  04:21        1.95
  YS02001779           JUNCTION     1.37     1.68     8.37     0  03:51        1.68
  YS02001882           JUNCTION     0.30     0.55     7.27     0  02:42        0.55
  YS02001884           JUNCTION     0.39     0.65     7.27     0  02:43        0.65
  YS02001759           JUNCTION     1.67     2.02     8.39     0  04:07        2.02
  YS02001887           JUNCTION     0.47     0.73     7.27     0  02:43        0.73
  YS02001890           JUNCTION     0.50     0.76     7.26     0  02:42        0.76
  YS02001898           JUNCTION     0.27     0.51     7.25     0  02:42        0.51
  YS02001901           JUNCTION     0.39     0.64     7.25     0  02:44        0.64
  YS02001904           JUNCTION     0.36     0.61     7.24     0  02:44        0.61
  YS02001907           JUNCTION     0.69     0.96     7.24     0  02:44        0.96
  YS02001910           JUNCTION     0.48     0.74     7.25     0  02:44        0.74
  YS02001915           JUNCTION     0.28     0.53     7.24     0  02:43        0.53
  YS02001918           JUNCTION     0.09     0.18     7.24     0  02:42        0.18
  YS02001619           JUNCTION     1.16     1.49     8.42     0  03:41        1.46
  YS02001629           JUNCTION     1.50     1.85     8.40     0  03:41        1.84
  YS02001641           JUNCTION     1.60     1.94     8.37     0  03:50        1.93
  YS02001644           JUNCTION     1.61     1.92     8.35     0  03:49        1.92
  YS02001652           JUNCTION     1.45     1.82     8.41     0  04:07        1.80
  YS02001655           JUNCTION     1.22     1.58     8.43     0  04:08        1.56
  YS02001920           JUNCTION     0.19     0.25     7.26     0  02:43        0.25
  YS02001923           JUNCTION     0.07     0.10     7.36     0  03:01        0.10
  YS02001926           JUNCTION     0.15     0.20     7.65     0  03:01        0.20
  YS02001929           JUNCTION     0.07     0.10     7.80     0  03:01        0.10
  YS02001658           JUNCTION     0.96     1.32     8.46     0  04:07        1.28
  YS02001661           JUNCTION     0.74     1.07     8.47     0  04:07        1.03
  YS02001664           JUNCTION     0.31     0.55     8.47     0  04:06        0.52
  YS02001622           JUNCTION     1.18     1.51     8.42     0  03:41        1.48
  YS02001633           JUNCTION     1.59     1.95     8.40     0  03:50        1.93
  YS02001649           JUNCTION     1.64     2.00     8.39     0  04:08        1.99
  YS02001757           JUNCTION     1.77     2.13     8.39     0  04:07        2.12
  YS02001895           JUNCTION     0.26     0.51     7.26     0  02:42        0.51
  YS02001625           JUNCTION     1.46     1.78     8.38     0  03:41        1.78
  YS02163301           JUNCTION     1.53     1.89     8.40     0  03:50        1.87
  YS02163601           JUNCTION     1.64     2.00     8.40     0  03:50        1.98
  YS02164001           JUNCTION     1.58     1.93     8.39     0  03:50        1.92
  YS02001647           JUNCTION     1.44     1.76     8.37     0  04:07        1.76
  YSB1154              JUNCTION     0.23     0.41     9.47     0  02:11        0.41
  YSB6556              JUNCTION     0.13     0.30     9.47     0  02:11        0.30
  YSB1174              JUNCTION     0.18     0.36     9.47     0  02:11        0.36
  YSB1171              JUNCTION     0.38     0.57     9.47     0  02:11        0.57
  YS02006553           JUNCTION     0.70     0.96     7.24     0  02:44        0.96
  YS02006561           JUNCTION     0.15     0.27     6.93     0  02:44        0.27
  YS02006556           JUNCTION     0.67     0.93     7.24     0  02:44        0.92
  YS02006558           JUNCTION     0.71     0.97     7.24     0  02:44        0.97
  YS02001783           JUNCTION     0.27     0.69     6.83     0  03:14        0.67
  YS02001784           JUNCTION     0.30     0.75     6.82     0  03:13        0.72
  YS02001786           JUNCTION     0.26     0.74     6.77     0  03:14        0.72
  YS02001788           JUNCTION     0.20     0.78     6.76     0  03:14        0.77
  YS02001790           JUNCTION     0.27     1.41     7.05     0  03:11        1.06
  YS02001791           JUNCTION     0.22     1.33     6.80     0  03:11        1.18
  YS02001793           JUNCTION     0.26     1.79     6.62     0  03:13        1.78
  WSC                  OUTFALL      0.31     0.40     1.07     0  05:13        0.40
  JK-storage           STORAGE      1.42     5.80     6.60     0  03:12        5.80
  CC-storage           STORAGE      1.05     1.38     8.38     0  04:15        1.38
  XR-storage           STORAGE      2.29     5.53     3.53     0  06:07        5.53
  
  
  *******************
  Node Inflow Summary
  *******************
  
  -------------------------------------------------------------------------------------------------
                                  Maximum  Maximum                  Lateral       Total        Flow
                                  Lateral    Total  Time of Max      Inflow      Inflow     Balance
                                   Inflow   Inflow   Occurrence      Volume      Volume       Error
  Node                 Type           LPS      LPS  days hr:min    10^6 ltr    10^6 ltr     Percent
  -------------------------------------------------------------------------------------------------
  WS02001211           JUNCTION      7.35   388.94     0  03:12       0.207        8.77       0.451
  WS02001212           JUNCTION      0.00   390.42     0  03:11           0        8.73       0.283
  WS02001213           JUNCTION      0.00   391.93     0  03:11           0        8.71       0.297
  WS02003069           JUNCTION      0.32   948.53     0  05:11     0.00902        15.1       0.186
  WS02003072           JUNCTION      0.00   948.47     0  05:12           0          15       0.232
  WS02003073           JUNCTION      1.82   950.23     0  05:12      0.0514          15       0.258
  WS02003060           JUNCTION     16.53   948.23     0  05:10       0.466        15.1       0.181
  WS02003066           JUNCTION      0.00   545.53     0  05:15           0        5.97       0.057
  WS02003059           JUNCTION      0.00   394.48     0  03:11           0        8.69       0.435
  WS02003067           JUNCTION      0.00   545.53     0  05:15           0        5.98       0.126
  WS02004401           JUNCTION      0.00   547.23     0  05:12           0        6.19       0.351
  WS02004402           JUNCTION      0.00   546.68     0  05:12           0        6.17       0.329
  WS02004403           JUNCTION      0.00   546.52     0  05:13           0        6.15       0.299
  WS02004404           JUNCTION      0.16   546.53     0  05:13     0.00457        6.14       0.225
  WS02004406           JUNCTION      0.00   546.70     0  05:13           0         6.1       0.549
  WS02004409           JUNCTION      0.00   546.21     0  05:06           0        6.06       0.228
  WS02004410           JUNCTION      0.00   545.84     0  05:14           0        6.05       0.251
  WS02004411           JUNCTION      0.00   545.75     0  05:14           0        6.03       0.253
  WS02004412           JUNCTION      0.00   545.67     0  05:14           0        6.02       0.274
  WS02004413           JUNCTION      0.00   545.59     0  05:14           0           6       0.419
  WS02004405           JUNCTION      0.04   546.48     0  05:13     0.00107        6.12       0.335
  WS02006109           JUNCTION      1.23   548.07     0  04:59      0.0347        6.28       0.264
  WS02006110           JUNCTION      0.00   548.08     0  04:59           0        6.27       0.332
  WS02006111           JUNCTION      0.00   571.15     0  04:59           0        6.24       0.078
  WS02006112           JUNCTION     11.65   552.80     0  05:07      0.0337        6.26       0.520
  WS02006113           JUNCTION      0.00   548.59     0  04:59           0        6.25       0.191
  WS02006115           JUNCTION      0.00   552.86     0  05:15           0        6.23       0.341
  WS02006116           JUNCTION      0.00   547.76     0  05:15           0        6.21       0.291
  WS02006230           JUNCTION     10.28   531.56     0  05:13        0.29         5.2       0.255
  WS02006231           JUNCTION      0.00   521.29     0  05:13           0        4.92       0.315
  WS02006232           JUNCTION      0.00   521.29     0  05:13           0        4.94       0.400
  WS02006234           JUNCTION      0.00   521.29     0  05:13           0        4.94       0.151
  WS02006235           JUNCTION      0.00   521.28     0  05:13           0         5.1       0.298
  WS02006238           JUNCTION      0.00   374.94     0  07:50           0        2.76       0.158
  WS02006240           JUNCTION      0.00   379.10     0  07:50           0        2.66       0.601
  WS02006242           JUNCTION      0.00   379.96     0  07:50           0        2.62       0.714
  WS02006243           JUNCTION      0.00   380.82     0  07:50           0        2.59       0.190
  WS02006245           JUNCTION      0.00   382.15     0  07:43           0        2.59       0.807
  WS02006247           JUNCTION      0.00   386.37     0  07:43           0         2.6       0.496
  WS02006248           JUNCTION      0.00   390.54     0  07:43           0        2.61       0.296
  WS02006249           JUNCTION      0.00   403.19     0  05:00           0        2.69       0.720
  WS02006239           JUNCTION      0.00   375.96     0  07:50           0        2.71       0.320
  WS02006251           JUNCTION      0.08   402.26     0  05:00     0.00217        2.77       0.551
  WS02006252           JUNCTION      0.00   400.00     0  05:00           0        2.52       0.025
  WS02006253           JUNCTION      1.68   113.31     0  03:41     0.00435       0.262       4.401
  WS02006256           JUNCTION      0.00   983.00     0  02:30           0        5.23       0.005
  WS02004138           JUNCTION      0.00   380.00     0  00:00           0        8.61       0.069
  WS02004139           JUNCTION      0.32   395.85     0  00:00     0.00905        8.61       0.522
  WS02004407           JUNCTION      0.00   546.26     0  05:06           0        6.07       0.116
  WS02006228           JUNCTION      0.00   546.98     0  04:59           0        6.26       0.228
  WS02006229           JUNCTION      0.00   546.08     0  04:59           0        6.28       0.274
  WS02006280           JUNCTION      0.00   272.52     0  02:13           0         1.1       0.006
  WS02006284           JUNCTION      0.10   272.50     0  02:13      0.0027         1.1       0.106
  WS02006287           JUNCTION      0.00   272.35     0  02:12           0         1.1       0.065
  WSF200               JUNCTION      0.00   545.52     0  05:15           0        5.97       0.047
  HS02004901           JUNCTION     14.30    14.30     0  02:07      0.0405      0.0406       4.521
  HS02004881           JUNCTION      5.90    53.39     0  02:12      0.0177       0.187       0.057
  HS02004876           JUNCTION      9.77    47.71     0  02:12      0.0339        0.17       0.312
  HS02004870           JUNCTION     10.58    38.15     0  02:12      0.0334       0.136       0.078
  HS02004862           JUNCTION      8.97    28.20     0  02:13      0.0391       0.103       0.162
  HS02004856           JUNCTION      7.87    19.31     0  02:12      0.0252      0.0652       2.259
  HS02004852           JUNCTION      0.00    11.89     0  02:13           0      0.0401       0.128
  HS02004848           JUNCTION     18.29    18.29     0  02:15      0.0801      0.0801       0.055
  HS02004842           JUNCTION      0.00     6.95     0  02:23           0       0.053      32.468
  HS02004837           JUNCTION     23.59    29.57     0  02:12       0.237       0.277       0.294
  HS02004830           JUNCTION      0.15    29.69     0  02:12     0.00423       0.268       0.462
  HS02004824           JUNCTION     20.74    50.25     0  02:15       0.105       0.371       0.145
  HS02004817           JUNCTION      0.60    50.85     0  02:15      0.0169       0.388       4.492
  HS02004807           JUNCTION     19.82    69.16     0  02:14      0.0615       0.433       0.986
  HS02004802           JUNCTION      0.00    69.56     0  02:15           0       0.428       0.956
  HS02004799           JUNCTION     15.42   173.09     0  02:10      0.0498       0.589       0.404
  HS02004792           JUNCTION     67.88   157.90     0  02:10       0.215       0.539       0.076
  HS02004788           JUNCTION     22.69    91.81     0  02:11       0.116       0.325       0.120
  HS02004785           JUNCTION      0.15    69.45     0  02:10     0.00423       0.211       0.228
  HS02004777           JUNCTION      0.03    69.75     0  02:09    0.000846       0.211       2.515
  HS02004770           JUNCTION     57.29    70.68     0  02:08       0.173       0.212       1.483
  HS02004480           JUNCTION      0.00   204.35     0  02:11           0        0.69       0.109
  HS02004479           JUNCTION      0.00    31.91     0  02:13           0       0.113       0.647
  HS02004478           JUNCTION      0.00   272.34     0  02:12           0         1.1       0.052
  YS02001745           JUNCTION    106.37   120.49     0  02:55        1.13        1.13       0.898
  YS02001748           JUNCTION      0.04   303.30     0  02:56     0.00127        1.13       2.069
  YS02001751           JUNCTION      0.01   369.56     0  02:55     0.00031        1.11       2.021
  YS02001754           JUNCTION      0.26   184.52     0  02:57     0.00733        1.08       2.297
  YS02001762           JUNCTION      0.00   171.28     0  03:00           0        1.21       1.804
  YS02001765           JUNCTION      0.00   166.17     0  03:00           0        1.21       2.067
  YS02001767           JUNCTION      0.54   163.45     0  02:54      0.0151        1.23       3.003
  YS02001770           JUNCTION    136.55   163.50     0  02:54         1.3        1.31       2.488
  YS02001774           JUNCTION      0.00    49.55     0  02:11           0       0.076      50.184
  YS02001779           JUNCTION      0.01    37.81     0  02:56    0.000141      0.0403      61.422
  YS02001882           JUNCTION      0.00     4.92     0  02:04           0     0.00686      35.661
  YS02001884           JUNCTION      0.00    13.51     0  02:04           0      0.0268      23.750
  YS02001759           JUNCTION    133.52   302.50     0  03:00        1.21        2.39       0.970
  YS02001887           JUNCTION    175.55   176.12     0  02:31        1.43        1.44       0.518
  YS02001890           JUNCTION      0.00   175.40     0  02:34           0        1.41       0.579
  YS02001898           JUNCTION      0.00   174.03     0  02:32           0         1.4       0.173
  YS02001901           JUNCTION      0.00   175.23     0  02:32           0         1.4       0.418
  YS02001904           JUNCTION      0.00   174.30     0  02:42           0         1.4       0.387
  YS02001907           JUNCTION      0.00   318.38     0  02:57           0        3.02       0.751
  YS02001910           JUNCTION      0.00   147.34     0  02:57           0        1.64       0.647
  YS02001915           JUNCTION     95.21   145.97     0  02:58        0.96        1.64       0.298
  YS02001918           JUNCTION      0.00    49.88     0  03:02           0       0.682       0.195
  YS02001619           JUNCTION     92.60    92.60     0  02:47       0.949       0.949       1.254
  YS02001629           JUNCTION      0.00   215.52     0  02:58           0        0.87       3.341
  YS02001641           JUNCTION      0.00   208.71     0  02:55           0        1.88       1.133
  YS02001644           JUNCTION    101.08   474.55     0  04:21        1.08        3.52       0.756
  YS02001652           JUNCTION      0.00   169.83     0  02:50           0       0.994       2.389
  YS02001655           JUNCTION      0.15   362.93     0  02:58     0.00434        1.02       2.118
  YS02001920           JUNCTION      2.87    48.90     0  03:01      0.0809       0.684       0.331
  YS02001923           JUNCTION      0.04    46.03     0  03:01     0.00106       0.604       0.059
  YS02001926           JUNCTION      0.05    46.04     0  03:01     0.00147       0.605       0.412
  YS02001929           JUNCTION     46.00    46.00     0  03:01       0.604       0.604       0.058
  YS02001658           JUNCTION      0.00   330.24     0  02:54           0        1.05       2.195
  YS02001661           JUNCTION      0.00   373.33     0  03:56           0        1.18       1.304
  YS02001664           JUNCTION    124.58   321.22     0  03:57        1.05        1.17       0.352
  YS02001622           JUNCTION      0.00   158.53     0  03:00           0       0.939       3.466
  YS02001633           JUNCTION    102.74   209.63     0  02:55        1.12        1.94       1.679
  YS02001649           JUNCTION      0.00   458.59     0  02:50           0         3.8       0.996
  YS02001757           JUNCTION      0.00   796.85     0  02:55           0        6.69       1.404
  YS02001895           JUNCTION      0.00   175.18     0  02:31           0        1.41       0.284
  YS02001625           JUNCTION      0.00   216.45     0  02:58           0       0.909       4.518
  YS02163301           JUNCTION      0.00   106.29     0  02:55           0       0.852       2.922
  YS02163601           JUNCTION      0.11   210.61     0  02:55      0.0031         1.9       1.620
  YS02164001           JUNCTION      0.00   210.25     0  02:55           0        1.88       1.084
  YS02001647           JUNCTION      0.00   313.28     0  04:20           0        2.97       0.954
  YSB1154              JUNCTION     17.37    17.37     0  02:10      0.0604      0.0616       2.402
  YSB6556              JUNCTION      0.00    17.28     0  02:11           0      0.0625       2.034
  YSB1174              JUNCTION     16.03    16.03     0  02:06      0.0439      0.0446       2.961
  YSB1171              JUNCTION      0.00    31.83     0  02:11           0       0.113       5.949
  YS02006553           JUNCTION      0.00   317.77     0  02:57           0        3.01       0.486
  YS02006561           JUNCTION      0.00   492.43     0  02:57           0        4.27       0.001
  YS02006556           JUNCTION      0.00   319.17     0  02:57           0        3.02       0.352
  YS02006558           JUNCTION    148.46   466.70     0  02:57         1.3        4.29       0.123
  YS02001783           JUNCTION      0.00   462.75     0  02:44           0        4.27       0.038
  YS02001784           JUNCTION      1.06   463.43     0  02:45      0.0299        4.29       0.063
  YS02001786           JUNCTION      0.06   463.19     0  02:43     0.00159        4.29       0.062
  YS02001788           JUNCTION      0.07   463.20     0  02:44       0.002        4.29       0.034
  YS02001790           JUNCTION      0.15   503.66     0  03:26     0.00437        4.29       0.007
  YS02001791           JUNCTION      0.00   561.71     0  03:27           0         4.3       0.025
  YS02001793           JUNCTION      0.00   598.76     0  03:27           0         4.3      -0.019
  WSC                  OUTFALL       0.00   950.14     0  05:13           0          15       0.000
  JK-storage           STORAGE       0.00   928.00     0  02:28           0        4.45     -20.615
  CC-storage           STORAGE       0.00   799.72     0  02:55           0        6.12       1.014
  XR-storage           STORAGE     392.98   392.98     0  02:51         7.9         8.5      -1.224
  
  
  **********************
  Node Surcharge Summary
  **********************
  
  Surcharging occurs when water rises above the top of the highest conduit.
  ---------------------------------------------------------------------
                                               Max. Height   Min. Depth
                                   Hours       Above Crown    Below Rim
  Node                 Type      Surcharged         Meters       Meters
  ---------------------------------------------------------------------
  WS02006109           JUNCTION        1.89          0.166        1.654
  WS02006110           JUNCTION        0.44          0.020        1.830
  WS02006112           JUNCTION        0.54          0.068        1.612
  WS02006230           JUNCTION        0.33          0.034        1.536
  WS02006231           JUNCTION        0.69          0.502        1.028
  WS02006232           JUNCTION        1.46          0.421        1.059
  WS02006234           JUNCTION        1.12          0.500        0.740
  WS02006235           JUNCTION        1.28          0.600        0.690
  WS02006238           JUNCTION        1.33          0.641        0.789
  WS02006240           JUNCTION        1.08          0.769        0.621
  WS02006242           JUNCTION        1.23          0.770        0.050
  WS02006243           JUNCTION        0.93          0.681        0.089
  WS02006245           JUNCTION        0.89          0.693        0.157
  WS02006247           JUNCTION        0.91          0.531        0.229
  WS02006248           JUNCTION        0.70          0.380        0.000
  WS02006249           JUNCTION        0.79          0.390        0.000
  WS02006239           JUNCTION        1.16          0.675        0.615
  WS02006251           JUNCTION        0.28          0.154        1.026
  WS02006252           JUNCTION        1.42          0.316        0.784
  WS02006253           JUNCTION        0.29          0.190        2.290
  WS02006256           JUNCTION        6.23          2.050        0.000
  WS02006228           JUNCTION        1.84          0.200        2.000
  YS02001748           JUNCTION        4.29          0.220        0.970
  YS02001751           JUNCTION        4.69          0.500        0.700
  YS02001754           JUNCTION        5.10          0.725        0.425
  YS02001762           JUNCTION        5.47          0.998        0.152
  YS02001765           JUNCTION        5.45          0.950        0.150
  YS02001767           JUNCTION        5.42          0.907        0.123
  YS02001770           JUNCTION        5.40          0.861        0.059
  YS02001774           JUNCTION        5.46          0.961        0.089
  YS02001779           JUNCTION        4.98          0.680        0.000
  YS02001759           JUNCTION        5.50          1.024        0.186
  YS02001619           JUNCTION        4.64          0.494        0.116
  YS02001629           JUNCTION        4.64          0.470        0.000
  YS02001641           JUNCTION        5.46          0.936        0.164
  YS02001644           JUNCTION        5.46          0.920        0.000
  YS02001652           JUNCTION        5.21          0.786        0.344
  YS02001655           JUNCTION        4.75          0.584        0.616
  YS02001658           JUNCTION        4.32          0.318        0.982
  YS02001622           JUNCTION        4.67          0.511        0.109
  YS02001633           JUNCTION        5.44          0.929        0.131
  YS02001649           JUNCTION        5.48          1.002        0.048
  YS02001757           JUNCTION        5.56          1.125        0.085
  YS02001625           JUNCTION        5.31          0.780        0.000
  YS02163301           JUNCTION        5.41          0.888        0.142
  YS02163601           JUNCTION        5.48          0.999        0.081
  YS02164001           JUNCTION        5.44          0.930        0.170
  YS02001647           JUNCTION        5.28          0.764        0.136
  YS02001790           JUNCTION        0.69          0.606        0.551
  YS02001791           JUNCTION        0.86          0.531        1.389
  YS02001793           JUNCTION        1.16          0.789        1.811
  
  
  *********************
  Node Flooding Summary
  *********************
  
  Flooding refers to all water that overflows a node, whether it ponds or not.
  --------------------------------------------------------------------------
                                                             Total   Maximum
                                 Maximum   Time of Max       Flood    Ponded
                        Hours       Rate    Occurrence      Volume     Depth
  Node                 Flooded       LPS   days hr:min    10^6 ltr    Meters
  --------------------------------------------------------------------------
  WS02006248              0.01     16.75      0  06:43       0.000     0.000
  WS02006249              0.27     76.70      0  05:00       0.061     0.000
  WS02006256              2.26    782.80      0  04:44       2.788     0.000
  YS02001779              0.35     37.28      0  04:21       0.017     0.000
  YS02001629              0.01      5.39      0  03:50       0.000     0.000
  YS02001644              1.51    474.28      0  04:21       1.099     0.000
  YS02001625              0.04     23.22      0  03:50       0.001     0.000
  JK-storage              0.44    447.26      0  03:15       0.300     0.000
  
  
  **********************
  Storage Volume Summary
  **********************
  
  --------------------------------------------------------------------------------------------------
                         Average     Avg  Evap Exfil       Maximum     Max    Time of Max    Maximum
                          Volume    Pcnt  Pcnt  Pcnt        Volume    Pcnt     Occurrence    Outflow
  Storage Unit           1000 m3    Full  Loss  Loss       1000 m3    Full    days hr:min        LPS
  --------------------------------------------------------------------------------------------------
  JK-storage               0.071      24     0     0         0.291     100       0  03:12     983.00
  CC-storage               2.929      19     0     0         3.841      24       0  04:15     400.00
  XR-storage               0.275      30     0     0         0.664      72       0  06:07     380.00
  
  
  ***********************
  Outfall Loading Summary
  ***********************
  
  ---------------------------------------------------------------------------------------------------------------------------------
                         Flow       Avg       Max       Total         Total         Total         Total         Total         Total
                         Freq      Flow      Flow      Volume           COD            SS            TN            TP         NH4-N
  Outfall Node           Pcnt       LPS       LPS    10^6 ltr            kg            kg            kg            kg            kg
  ---------------------------------------------------------------------------------------------------------------------------------
  WSC                   99.98    603.88    950.14      15.007      1983.618      3231.279       162.974        19.936       100.694
  ---------------------------------------------------------------------------------------------------------------------------------
  System                99.98    603.88    950.14      15.007      1983.618      3231.279       162.974        19.936       100.694
  
  
  ********************
  Link Flow Summary
  ********************
  
  -----------------------------------------------------------------------------
                                 Maximum  Time of Max   Maximum    Max/    Max/
                                  |Flow|   Occurrence   |Veloc|    Full    Full
  Link                 Type          LPS  days hr:min     m/sec    Flow   Depth
  -----------------------------------------------------------------------------
  WS02003066WSF200     CONDUIT    545.52     0  05:15      2.77    0.09    0.23
  WS02006287WS02006284 CONDUIT    272.40     0  02:13      1.78    0.13    0.25
  WS02006284WS02006280 CONDUIT    272.52     0  02:13      2.02    0.11    0.23
  WS02006280WS02006229 CONDUIT    272.52     0  02:13      3.26    0.06    0.16
  WS02006229WS02006228 CONDUIT    546.98     0  04:59      1.09    1.81    1.00
  WS02006256WS02006235 CONDUIT    288.92     0  00:00      4.23    3.06    1.00
  WS02006253WS02006251 CONDUIT    108.45     0  03:41      0.54    0.33    1.00
  WS02006252WS02006251 CONDUIT    400.69     0  07:40      3.19    1.47    1.00
  WS02006251WS02006249 CONDUIT    403.19     0  05:00      1.13    1.16    1.00
  WS02006249WS02006248 CONDUIT    390.54     0  07:43      1.19    2.14    1.00
  WS02006248WS02006247 CONDUIT    386.37     0  07:43      1.17    0.84    1.00
  WS02006247WS02006245 CONDUIT    382.15     0  07:43      1.14    3.03    1.00
  WS02006245WS02006243 CONDUIT    380.82     0  07:50      1.19    1.13    1.00
  WS02006243WS02006242 CONDUIT    379.96     0  07:50      1.07    0.81    1.00
  WS02006242WS02006240 CONDUIT    379.10     0  07:50      1.01    1.51    1.00
  WS02006240WS02006239 CONDUIT    375.96     0  07:50      1.05    1.18    1.00
  WS02006239WS02006238 CONDUIT    374.94     0  07:50      0.97    1.20    1.00
  WS02006238WS02006235 CONDUIT    374.88     0  07:50      1.45    0.84    1.00
  WS02006235WS02006234 CONDUIT    521.29     0  05:13      1.35    5.50    1.00
  WS02006234WS02006232 CONDUIT    521.29     0  05:13      1.39    1.05    1.00
  WS02006232WS02006231 CONDUIT    521.29     0  05:13      1.35    1.09    1.00
  WS02006231WS02006230 CONDUIT    521.28     0  05:13      1.41    7.91    1.00
  WS02006230WS02006229 CONDUIT    531.64     0  05:13      1.38   11.83    1.00
  WS02006228WS02006109 CONDUIT    546.84     0  04:59      1.09    2.39    1.00
  WS02006116WS02004401 CONDUIT    547.23     0  05:12      1.00    0.75    0.85
  WS02006115WS02006116 CONDUIT    547.76     0  05:15      1.02    0.70    0.77
  WS02006113WS02006111 CONDUIT    571.15     0  04:59      2.48    0.68    0.47
  WS02006112WS02006115 CONDUIT    552.86     0  05:15      0.80    0.33    0.87
  WS02006111WS02006112 CONDUIT    552.74     0  05:07      1.60    0.26    0.68
  WS02006110WS02006113 CONDUIT    548.59     0  04:59      1.29    0.50    0.79
  WS02006109WS02006110 CONDUIT    548.08     0  04:59      1.09    1.05    1.00
  WS02004411WS02004412 CONDUIT    545.67     0  05:14      0.93    0.78    0.70
  WS02004401WS02004402 CONDUIT    546.68     0  05:12      1.00    0.66    0.87
  WS02004413WS02003067 CONDUIT    545.53     0  05:15      1.12    0.23    0.60
  WS02004412WS02004413 CONDUIT    545.59     0  05:14      0.83    0.37    0.78
  WS02004410WS02004411 CONDUIT    545.75     0  05:14      0.94    0.75    0.69
  WS02004409WS02004410 CONDUIT    545.84     0  05:14      1.00    0.71    0.68
  WS02004407WS02004409 CONDUIT    546.21     0  05:06      1.53    0.19    0.49
  WS02004406WS02004407 CONDUIT    546.26     0  05:06      1.05    0.24    0.63
  WS02004405WS02004406 CONDUIT    546.70     0  05:13      1.10    1.08    0.96
  WS02004404WS02004405 CONDUIT    546.44     0  05:13      1.15    5.35    0.97
  WS02004403WS02004404 CONDUIT    546.37     0  05:13      0.98    0.39    0.93
  WS02004402WS02004403 CONDUIT    546.52     0  05:13      1.02    0.79    0.89
  WS02004139WS02001211 CONDUIT    381.59     0  03:12      0.90    0.48    0.60
  WS02004138WS02004139 CONDUIT    395.52     0  00:00      3.64    0.08    0.44
  WS02003067WS02003066 CONDUIT    545.53     0  05:15      1.22    0.17    0.42
  WS02001213WS02003059 CONDUIT    394.48     0  03:11      0.89    0.65    0.78
  WS02001212WS02001213 CONDUIT    391.93     0  03:11      1.32    0.60    0.47
  WS02001211WS02001212 CONDUIT    390.42     0  03:11      0.78    0.30    0.65
  WS02003072WS02003073 CONDUIT    948.41     0  05:12      1.73    2.05    0.49
  WS02003069WS02003072 CONDUIT    948.47     0  05:12      1.63    0.46    0.51
  WS02003060WS02003069 CONDUIT    948.21     0  05:11      1.87    0.37    0.46
  WS02003059WS02003060 CONDUIT    398.04     0  03:10      0.95    0.26    0.66
  HS02004901HS02004770 CONDUIT     13.61     0  02:09      0.05    0.05    0.35
  HS02004876HS02004881 CONDUIT     47.87     0  02:12      0.71    0.51    0.10
  HS02004870HS02004876 CONDUIT     38.13     0  02:13      0.49    0.03    0.11
  HS02004842HS02004848 CONDUIT      6.95     0  02:23      0.04    0.00    0.28
  HS02004837HS02004842 CONDUIT      7.21     0  02:24      0.42    0.00    0.30
  HS02004830HS02004837 CONDUIT     29.54     0  02:12      0.48    0.03    0.09
  HS02004824HS02004830 CONDUIT     29.69     0  02:13      0.52    0.04    0.08
  HS02004817HS02004824 CONDUIT     50.25     0  02:15      0.17    0.02    0.43
  HS02004770HS02004777 CONDUIT     69.72     0  02:09      0.27    0.13    0.37
  HS02004799HS02004480 CONDUIT    172.85     0  02:11      0.68    0.22    0.36
  HS02004792HS02004799 CONDUIT    157.82     0  02:10      0.78    0.10    0.29
  HS02004788HS02004792 CONDUIT     91.73     0  02:11      0.92    0.06    0.14
  HS02004785HS02004788 CONDUIT     69.37     0  02:11      0.59    0.52    0.17
  HS02004777HS02004785 CONDUIT     69.30     0  02:10      0.33    0.09    0.30
  HS02004480HS02004478 CONDUIT    204.32     0  02:11      1.08    0.86    0.27
  HS02004479HS02004480 CONDUIT     32.18     0  02:13      0.17    0.03    0.35
  HS02004862HS02004870 CONDUIT     28.16     0  02:14      0.53    0.03    0.08
  HS02004848HS02004852 CONDUIT     11.89     0  02:13      0.36    0.01    0.05
  HS02004856HS02004862 CONDUIT     19.27     0  02:13      0.39    0.02    0.07
  HS02004852HS02004856 CONDUIT     11.84     0  02:14      0.16    0.01    0.10
  HS02004802HS02004478 CONDUIT     70.10     0  02:16      0.35    0.06    0.29
  HS02004478WS02006287 CONDUIT    272.35     0  02:12      1.48    0.08    0.20
  HS02004817HS02004807 CONDUIT     51.57     0  02:17      0.13    0.03    0.55
  HS02004807HS02004802 CONDUIT     69.56     0  02:15      0.29    0.13    0.34
  YS02001759YS02001757 CONDUIT    305.24     0  03:00      0.39    0.22    1.00
  YS02001762YS02001759 CONDUIT    175.96     0  03:00      0.22    0.20    1.00
  YS02001765YS02001762 CONDUIT    171.28     0  03:00      0.25    0.16    1.00
  YS02001770YS02001767 CONDUIT    162.91     0  02:54      0.29    0.65    1.00
  YS02001774YS02001770 CONDUIT     49.55     0  02:11      0.14    0.03    1.00
  YS02001779YS02001774 CONDUIT     37.81     0  02:56      0.07    0.02    1.00
  YS02001649YS02001757 CONDUIT    454.18     0  02:50      0.58    0.28    1.00
  YS02001767YS02001765 CONDUIT    166.17     0  03:00      0.27    0.21    1.00
  YS02006561YS02001783 CONDUIT    462.75     0  02:44      1.96    0.24    0.58
  YS02001783YS02001784 CONDUIT    462.37     0  02:45      1.40    0.64    0.88
  YS02001784YS02001785 CONDUIT    463.13     0  02:43      1.51    1.08    0.93
  YS02001788YS02001790 CONDUIT    503.50     0  03:26      2.06    0.37    0.99
  YS02001790YS02001791 CONDUIT    561.71     0  03:27      2.40    0.61    1.00
  YS02001791YS02001793 CONDUIT    598.76     0  03:27      4.93    0.26    1.00
  YS02001910YS02001907 CONDUIT    149.22     0  02:58      0.49    0.08    0.84
  YS02001786YS02001788 CONDUIT    463.13     0  02:44      1.96    0.89    0.94
  YS02001915YS02001910 CONDUIT    147.34     0  02:57      0.45    0.07    0.63
  YS02001918YS02001915 CONDUIT     52.18     0  02:58      0.44    0.03    0.35
  YS02001923YS02001920 CONDUIT     46.03     0  03:01      0.52    0.02    0.18
  YS02001926YS02001923 CONDUIT     45.99     0  03:01      0.57    0.07    0.16
  YS02001929YS02001926 CONDUIT     45.99     0  03:01      0.61    0.02    0.15
  YS02001920YS02001918 CONDUIT     49.88     0  03:02      0.52    0.05    0.22
  YS02001629YS02163301 CONDUIT    106.29     0  02:55      0.14    0.13    1.00
  YS02001619YS02001622 CONDUIT    158.53     0  03:00      0.68    0.23    1.00
  YS02001622YS02001625 CONDUIT    216.45     0  02:58      0.28    0.12    1.00
  YS02001625YS02001629 CONDUIT    215.52     0  02:58      0.28    0.10    1.00
  YS02163301YS02001633 CONDUIT    107.02     0  02:55      0.14    0.10    1.00
  YS02163601YS02164001 CONDUIT    210.25     0  02:55      0.27    0.19    1.00
  YS02164001YS02001641 CONDUIT    208.71     0  02:55      0.27    0.28    1.00
  YS02001641YS02001644 CONDUIT    207.87     0  02:55      0.26    0.67    1.00
  YS02001647YS02001649 CONDUIT    313.28     0  04:20      0.40    0.17    1.00
  YS02006553YS02006556 CONDUIT    319.17     0  02:57      0.42    0.27    0.92
  YS02006556YS02006558 CONDUIT    326.56     0  02:57      0.43    0.26    0.95
  YSB6556YSB1171       CONDUIT     17.61     0  02:14      0.07    0.02    0.62
  YS02001907YS02006553 CONDUIT    317.77     0  02:57      0.35    0.37    1.00
  YS02006558YS02006561 CONDUIT    492.43     0  02:57      2.73    1.09    0.62
  YS02001633YS02163601 CONDUIT    210.50     0  02:55      0.27    0.22    1.00
  YS02001644YS02001647 CONDUIT    314.84     0  04:20      0.40    0.18    1.00
  YS02001745YS02001748 CONDUIT    269.87     0  02:56      1.52    0.10    0.93
  YS02001748YS02001751 CONDUIT    369.54     0  02:55      1.16    0.19    1.00
  YS02001751YS02001754 CONDUIT    184.26     0  02:57      0.91    0.09    1.00
  YS02001754YS02001757 CONDUIT    184.82     0  02:57      0.33    0.07    1.00
  YS02001882YS02001884 CONDUIT      4.92     0  02:04      0.07    0.01    0.57
  YS02001884YS02001887 CONDUIT     13.51     0  02:04      0.05    0.02    0.66
  YS02001890YS02001895 CONDUIT    175.18     0  02:31      0.34    0.08    0.63
  YS02001895YS02001898 CONDUIT    174.03     0  02:32      0.47    0.30    0.49
  YS02001898YS02001901 CONDUIT    175.23     0  02:32      0.38    0.11    0.57
  YS02001901YS02001904 CONDUIT    174.30     0  02:42      0.34    0.27    0.63
  YS02001904YS02001907 CONDUIT    173.88     0  02:42      0.27    0.06    0.78
  YS02001887YS02001890 CONDUIT    175.40     0  02:34      0.30    0.30    0.72
  YS02001652YS02001649 CONDUIT    172.14     0  02:50      0.37    0.09    1.00
  YS02001655YS02001652 CONDUIT    169.83     0  02:50      0.95    0.08    1.00
  YS02001658YS02001655 CONDUIT    362.78     0  02:58      1.34    0.15    1.00
  YS02001661YS02001658 CONDUIT    330.24     0  02:54      1.58    0.13    1.00
  YS02001664YS02001661 CONDUIT    373.33     0  03:56      1.32    0.12    0.70
  YSB1154YSB6556       CONDUIT     17.28     0  02:11      0.19    0.03    0.51
  YSB1174YSB1171       CONDUIT     15.16     0  02:08      0.06    0.02    0.63
  YSB1171HS02004479    CONDUIT     31.91     0  02:13      0.54    0.02    0.49
  HS02004881HS02006253 CONDUIT     53.38     0  02:12      1.88    0.01    0.50
  YS02001793JiankangQianchi CONDUIT    928.00     0  02:28     14.95    0.07    1.00
  YS02001757CaochengTiaoxuchi CONDUIT    799.72     0  02:55      1.49    0.35    1.00
  WSF200WS02003060     CONDUIT    545.40     0  05:10      1.72    0.12    0.34
  1                    CONDUIT    950.14     0  05:13      3.28    0.33    0.40
  CC-Pump-1            PUMP       200.00     0  04:40              1.00
  CC-Pump-2            PUMP       200.00     0  05:00              1.00
  JK-Pump-1            PUMP       300.00     0  00:00              1.00
  JK-Pump-2            PUMP       683.00     0  02:30              1.00
  XR-Pump-1            PUMP        95.00     0  00:00              1.00
  XR-Pump-2            PUMP        95.00     0  00:00              1.00
  XR-Pump-3            PUMP        95.00     0  00:00              1.00
  XR-Pump-4            PUMP        95.00     0  00:00              1.00
  
  
  ***************************
  Flow Classification Summary
  ***************************
  
  -------------------------------------------------------------------------------------
                      Adjusted    ---------- Fraction of Time in Flow Class ---------- 
                       /Actual         Up    Down  Sub   Sup   Up    Down  Norm  Inlet 
  Conduit               Length    Dry  Dry   Dry   Crit  Crit  Crit  Crit  Ltd   Ctrl  
  -------------------------------------------------------------------------------------
  WS02003066WSF200        1.00   0.01  0.03  0.00  0.00  0.96  0.00  0.00  0.78  0.00
  WS02006287WS02006284    1.00   0.04  0.02  0.00  0.74  0.20  0.00  0.00  0.76  0.00
  WS02006284WS02006280    1.00   0.05  0.00  0.00  0.00  0.00  0.00  0.95  0.00  0.00
  WS02006280WS02006229    1.00   0.05  0.00  0.00  0.00  0.00  0.00  0.95  0.00  0.00
  WS02006229WS02006228    1.00   0.00  0.00  0.00  0.99  0.00  0.00  0.01  0.00  0.00
  WS02006256WS02006235    1.00   0.00  0.00  0.00  0.99  0.01  0.00  0.00  0.00  0.00
  WS02006253WS02006251    1.00   0.02  0.02  0.00  0.95  0.00  0.01  0.00  0.00  0.00
  WS02006252WS02006251    1.00   0.24  0.00  0.00  0.03  0.00  0.74  0.00  0.00  0.00
  WS02006251WS02006249    1.00   0.00  0.00  0.00  1.00  0.00  0.00  0.00  0.45  0.00
  WS02006249WS02006248    1.00   0.00  0.01  0.00  0.78  0.00  0.21  0.00  0.00  0.00
  WS02006248WS02006247    1.00   0.01  0.00  0.00  0.98  0.00  0.00  0.01  0.35  0.00
  WS02006247WS02006245    1.00   0.01  0.00  0.00  0.97  0.00  0.00  0.03  0.00  0.00
  WS02006245WS02006243    1.00   0.00  0.00  0.00  0.89  0.00  0.00  0.11  0.00  0.00
  WS02006243WS02006242    1.00   0.00  0.00  0.00  1.00  0.00  0.00  0.00  0.45  0.00
  WS02006242WS02006240    1.00   0.00  0.00  0.00  1.00  0.00  0.00  0.00  0.00  0.00
  WS02006240WS02006239    1.00   0.00  0.00  0.00  0.90  0.00  0.00  0.10  0.01  0.00
  WS02006239WS02006238    1.00   0.00  0.00  0.00  1.00  0.00  0.00  0.00  0.22  0.00
  WS02006238WS02006235    1.00   0.00  0.00  0.00  1.00  0.00  0.00  0.00  0.00  0.00
  WS02006235WS02006234    1.00   0.00  0.00  0.00  0.92  0.00  0.08  0.00  0.00  0.00
  WS02006234WS02006232    1.00   0.00  0.00  0.00  1.00  0.00  0.00  0.00  0.14  0.00
  WS02006232WS02006231    1.00   0.00  0.00  0.00  0.99  0.00  0.01  0.00  0.00  0.00
  WS02006231WS02006230    1.00   0.00  0.00  0.00  0.51  0.00  0.49  0.00  0.00  0.00
  WS02006230WS02006229    1.00   0.00  0.00  0.00  0.99  0.00  0.00  0.01  0.00  0.00
  WS02006228WS02006109    1.00   0.00  0.00  0.00  1.00  0.00  0.00  0.00  0.01  0.00
  WS02006116WS02004401    1.00   0.01  0.00  0.00  0.99  0.00  0.00  0.00  0.00  0.00
  WS02006115WS02006116    1.00   0.01  0.00  0.00  0.99  0.00  0.00  0.00  0.00  0.00
  WS02006113WS02006111    1.00   0.01  0.00  0.00  0.00  0.99  0.00  0.00  0.19  0.00
  WS02006112WS02006115    1.00   0.01  0.00  0.00  0.99  0.00  0.00  0.00  0.00  0.00
  WS02006111WS02006112    1.00   0.01  0.00  0.00  0.99  0.00  0.00  0.00  0.98  0.00
  WS02006110WS02006113    1.00   0.00  0.00  0.00  0.99  0.00  0.00  0.00  0.00  0.00
  WS02006109WS02006110    1.00   0.00  0.00  0.00  0.99  0.00  0.00  0.00  0.00  0.00
  WS02004411WS02004412    1.00   0.02  0.00  0.00  0.98  0.00  0.00  0.00  0.00  0.00
  WS02004401WS02004402    1.00   0.01  0.00  0.00  0.99  0.00  0.00  0.00  0.00  0.00
  WS02004413WS02003067    1.00   0.02  0.01  0.00  0.00  0.00  0.97  0.00  0.00  0.00
  WS02004412WS02004413    1.00   0.02  0.00  0.00  0.98  0.00  0.00  0.00  0.01  0.00
  WS02004410WS02004411    1.00   0.02  0.00  0.00  0.98  0.00  0.00  0.00  0.00  0.00
  WS02004409WS02004410    1.00   0.02  0.00  0.00  0.98  0.00  0.00  0.00  0.02  0.00
  WS02004407WS02004409    1.00   0.02  0.00  0.00  0.97  0.01  0.00  0.00  0.95  0.00
  WS02004406WS02004407    1.00   0.00  0.02  0.00  0.98  0.00  0.00  0.00  0.00  0.00
  WS02004405WS02004406    1.00   0.00  0.00  0.00  1.00  0.00  0.00  0.00  0.00  0.00
  WS02004404WS02004405    1.00   0.00  0.00  0.00  1.00  0.00  0.00  0.00  0.00  0.00
  WS02004403WS02004404    1.00   0.00  0.01  0.00  0.99  0.00  0.00  0.00  0.00  0.00
  WS02004402WS02004403    1.00   0.01  0.00  0.00  0.99  0.00  0.00  0.00  0.00  0.00
  WS02004139WS02001211    1.00   0.00  0.00  0.00  1.00  0.00  0.00  0.00  0.00  0.00
  WS02004138WS02004139    1.00   0.00  0.00  0.00  1.00  0.00  0.00  0.00  1.00  0.00
  WS02003067WS02003066    1.00   0.03  0.00  0.00  0.96  0.00  0.00  0.00  0.00  0.00
  WS02001213WS02003059    1.00   0.00  0.00  0.00  1.00  0.00  0.00  0.00  0.00  0.00
  WS02001212WS02001213    1.00   0.00  0.00  0.00  0.87  0.00  0.13  0.00  0.00  0.00
  WS02001211WS02001212    1.00   0.00  0.00  0.00  1.00  0.00  0.00  0.00  0.00  0.00
  WS02003072WS02003073    1.00   0.00  0.00  0.00  0.00  0.00  0.00  1.00  0.00  0.00
  WS02003069WS02003072    1.00   0.00  0.00  0.00  1.00  0.00  0.00  0.00  0.21  0.00
  WS02003060WS02003069    1.00   0.00  0.00  0.00  0.98  0.02  0.00  0.00  0.16  0.00
  WS02003059WS02003060    1.00   0.00  0.00  0.00  1.00  0.00  0.00  0.00  0.01  0.00
  HS02004901HS02004770    1.00   0.05  0.00  0.00  0.95  0.00  0.00  0.00  0.01  0.00
  HS02004876HS02004881    1.00   0.01  0.00  0.00  0.99  0.00  0.00  0.00  0.00  0.00
  HS02004870HS02004876    1.00   0.00  0.00  0.00  0.99  0.00  0.00  0.00  0.95  0.00
  HS02004842HS02004848    1.00   0.00  0.05  0.00  0.95  0.00  0.00  0.00  0.65  0.00
  HS02004837HS02004842    1.00   0.00  0.00  0.00  1.00  0.00  0.00  0.00  0.11  0.00
  HS02004830HS02004837    1.00   0.00  0.00  0.00  1.00  0.00  0.00  0.00  0.99  0.00
  HS02004824HS02004830    1.00   0.00  0.00  0.00  1.00  0.00  0.00  0.00  0.00  0.00
  HS02004817HS02004824    1.00   0.00  0.00  0.00  1.00  0.00  0.00  0.00  1.00  0.00
  HS02004770HS02004777    1.00   0.00  0.05  0.00  0.95  0.00  0.00  0.00  0.05  0.00
  HS02004799HS02004480    1.00   0.00  0.02  0.00  0.94  0.00  0.05  0.00  0.00  0.00
  HS02004792HS02004799    1.00   0.00  0.00  0.00  0.99  0.01  0.00  0.00  0.98  0.00
  HS02004788HS02004792    1.00   0.00  0.00  0.00  1.00  0.00  0.00  0.00  0.98  0.00
  HS02004785HS02004788    1.00   0.00  0.00  0.00  1.00  0.00  0.00  0.00  0.00  0.00
  HS02004777HS02004785    1.00   0.00  0.00  0.00  1.00  0.00  0.00  0.00  0.17  0.00
  HS02004480HS02004478    1.00   0.05  0.00  0.00  0.78  0.00  0.00  0.17  0.00  0.00
  HS02004479HS02004480    1.00   0.02  0.00  0.00  0.98  0.00  0.00  0.00  0.15  0.00
  HS02004862HS02004870    1.00   0.00  0.00  0.00  1.00  0.00  0.00  0.00  0.05  0.00
  HS02004848HS02004852    1.00   0.05  0.00  0.00  0.95  0.00  0.00  0.00  0.72  0.00
  HS02004856HS02004862    1.00   0.00  0.08  0.00  0.92  0.00  0.00  0.00  0.77  0.00
  HS02004852HS02004856    1.00   0.05  0.01  0.00  0.94  0.00  0.00  0.00  0.83  0.00
  HS02004802HS02004478    1.00   0.05  0.01  0.00  0.94  0.00  0.00  0.00  0.01  0.00
  HS02004478WS02006287    1.00   0.06  0.00  0.00  0.86  0.07  0.00  0.00  0.75  0.00
  HS02004817HS02004807    1.00   0.00  0.05  0.00  0.95  0.00  0.00  0.00  0.00  0.00
  HS02004807HS02004802    1.00   0.05  0.00  0.00  0.95  0.00  0.00  0.00  0.01  0.00
  YS02001759YS02001757    1.00   0.00  0.00  0.00  1.00  0.00  0.00  0.00  0.18  0.00
  YS02001762YS02001759    1.00   0.00  0.00  0.00  1.00  0.00  0.00  0.00  0.04  0.00
  YS02001765YS02001762    1.00   0.00  0.00  0.00  1.00  0.00  0.00  0.00  0.20  0.00
  YS02001770YS02001767    1.00   0.00  0.00  0.00  1.00  0.00  0.00  0.00  0.00  0.00
  YS02001774YS02001770    1.00   0.00  0.06  0.00  0.94  0.00  0.00  0.00  0.05  0.00
  YS02001779YS02001774    1.00   0.00  0.00  0.00  1.00  0.00  0.00  0.00  0.24  0.00
  YS02001649YS02001757    1.00   0.00  0.00  0.00  1.00  0.00  0.00  0.00  0.18  0.00
  YS02001767YS02001765    1.00   0.00  0.00  0.00  1.00  0.00  0.00  0.00  0.01  0.00
  YS02006561YS02001783    1.00   0.08  0.00  0.00  0.07  0.85  0.00  0.00  0.64  0.00
  YS02001783YS02001784    1.00   0.00  0.08  0.00  0.92  0.00  0.00  0.00  0.01  0.00
  YS02001784YS02001785    1.00   0.00  0.00  0.00  1.00  0.00  0.00  0.00  0.23  0.00
  YS02001788YS02001790    1.00   0.00  0.00  0.00  0.19  0.81  0.00  0.00  0.61  0.00
  YS02001790YS02001791    1.00   0.00  0.00  0.00  0.12  0.88  0.00  0.00  0.49  0.00
  YS02001791YS02001793    1.00   0.00  0.00  0.00  0.15  0.85  0.00  0.00  0.05  0.00
  YS02001910YS02001907    1.00   0.00  0.00  0.00  0.99  0.00  0.00  0.01  0.13  0.00
  YS02001786YS02001788    1.00   0.00  0.00  0.00  0.17  0.83  0.00  0.00  0.00  0.00
  YS02001915YS02001910    1.00   0.00  0.00  0.00  0.99  0.01  0.00  0.00  0.22  0.00
  YS02001918YS02001915    1.00   0.00  0.00  0.00  0.99  0.01  0.00  0.00  0.69  0.00
  YS02001923YS02001920    1.00   0.00  0.00  0.00  1.00  0.00  0.00  0.00  1.00  0.00
  YS02001926YS02001923    1.00   0.00  0.03  0.00  0.00  0.00  0.97  0.00  0.00  0.00
  YS02001929YS02001926    1.00   0.00  0.05  0.00  0.95  0.00  0.00  0.00  0.87  0.00
  YS02001920YS02001918    1.00   0.00  0.00  0.00  1.00  0.00  0.00  0.00  0.00  0.00
  YS02001629YS02163301    1.00   0.07  0.01  0.00  0.93  0.00  0.00  0.00  0.00  0.00
  YS02001619YS02001622    1.00   0.05  0.00  0.00  0.95  0.00  0.00  0.00  0.00  0.00
  YS02001622YS02001625    1.00   0.05  0.00  0.00  0.95  0.00  0.00  0.00  0.11  0.00
  YS02001625YS02001629    1.00   0.05  0.04  0.00  0.90  0.00  0.02  0.00  0.00  0.00
  YS02163301YS02001633    1.00   0.00  0.07  0.00  0.93  0.00  0.00  0.00  0.00  0.00
  YS02163601YS02164001    1.00   0.00  0.03  0.00  0.97  0.00  0.00  0.00  0.00  0.00
  YS02164001YS02001641    1.00   0.00  0.03  0.00  0.97  0.00  0.00  0.00  0.07  0.00
  YS02001641YS02001644    1.00   0.00  0.00  0.00  1.00  0.00  0.00  0.00  0.00  0.00
  YS02001647YS02001649    1.00   0.00  0.08  0.00  0.92  0.00  0.00  0.00  0.01  0.00
  YS02006553YS02006556    1.00   0.01  0.00  0.00  0.99  0.00  0.00  0.00  0.03  0.00
  YS02006556YS02006558    1.00   0.00  0.00  0.00  1.00  0.00  0.00  0.00  0.00  0.00
  YSB6556YSB1171          1.00   0.02  0.03  0.00  0.96  0.00  0.00  0.00  0.00  0.00
  YS02001907YS02006553    1.00   0.00  0.01  0.00  0.99  0.00  0.00  0.00  0.00  0.00
  YS02006558YS02006561    1.00   0.08  0.00  0.00  0.00  0.92  0.00  0.00  0.68  0.00
  YS02001633YS02163601    1.00   0.00  0.00  0.00  1.00  0.00  0.00  0.00  0.19  0.00
  YS02001644YS02001647    1.00   0.00  0.08  0.00  0.92  0.00  0.00  0.00  0.00  0.00
  YS02001745YS02001748    1.00   0.00  0.00  0.00  0.88  0.01  0.00  0.12  0.06  0.00
  YS02001748YS02001751    1.00   0.00  0.00  0.00  0.96  0.04  0.00  0.00  0.19  0.00
  YS02001751YS02001754    1.00   0.00  0.00  0.00  0.91  0.00  0.00  0.09  0.02  0.00
  YS02001754YS02001757    1.00   0.00  0.00  0.00  1.00  0.00  0.00  0.00  0.24  0.00
  YS02001882YS02001884    1.00   0.06  0.00  0.00  0.93  0.00  0.00  0.00  0.00  0.00
  YS02001884YS02001887    1.00   0.03  0.02  0.00  0.96  0.00  0.00  0.00  0.00  0.00
  YS02001890YS02001895    1.00   0.00  0.07  0.00  0.93  0.00  0.00  0.00  0.00  0.00
  YS02001895YS02001898    1.00   0.07  0.00  0.00  0.91  0.00  0.01  0.00  0.00  0.00
  YS02001898YS02001901    1.00   0.07  0.00  0.00  0.93  0.00  0.00  0.00  0.02  0.00
  YS02001901YS02001904    1.00   0.07  0.00  0.00  0.93  0.00  0.00  0.00  0.00  0.00
  YS02001904YS02001907    1.00   0.00  0.07  0.00  0.93  0.00  0.00  0.00  0.00  0.00
  YS02001887YS02001890    1.00   0.00  0.00  0.00  0.98  0.00  0.01  0.00  0.00  0.00
  YS02001652YS02001649    1.00   0.00  0.00  0.00  1.00  0.00  0.00  0.00  0.22  0.00
  YS02001655YS02001652    1.00   0.00  0.00  0.00  0.91  0.00  0.00  0.09  0.02  0.00
  YS02001658YS02001655    1.00   0.00  0.06  0.00  0.90  0.04  0.00  0.00  0.08  0.00
  YS02001661YS02001658    1.00   0.06  0.00  0.00  0.88  0.07  0.00  0.00  0.06  0.00
  YS02001664YS02001661    1.00   0.05  0.00  0.00  0.88  0.08  0.00  0.00  0.29  0.00
  YSB1154YSB6556          1.00   0.04  0.00  0.00  0.96  0.00  0.00  0.00  0.02  0.00
  YSB1174YSB1171          1.00   0.02  0.01  0.00  0.96  0.00  0.00  0.00  0.00  0.00
  YSB1171HS02004479       1.00   0.02  0.00  0.00  0.98  0.00  0.00  0.00  0.13  0.00
  HS02004881HS02006253    1.00   0.02  0.00  0.00  0.54  0.01  0.00  0.43  0.30  0.00
  YS02001793JiankangQianchi    1.00   0.00  0.00  0.00  0.52  0.48  0.00  0.00  0.48  0.00
  YS02001757CaochengTiaoxuchi    1.00   0.00  0.10  0.00  0.90  0.00  0.00  0.00  0.00  0.00
  WSF200WS02003060        1.00   0.00  0.01  0.00  0.85  0.14  0.00  0.00  0.57  0.00
  1                       1.00   0.00  0.00  0.00  0.00  1.00  0.00  0.00  0.55  0.00
  
  
  *************************
  Conduit Surcharge Summary
  *************************
  
  ----------------------------------------------------------------------------
                                                           Hours        Hours 
                         --------- Hours Full --------   Above Full   Capacity
  Conduit                Both Ends  Upstream  Dnstream   Normal Flow   Limited
  ----------------------------------------------------------------------------
  WS02006229WS02006228        1.84      1.94      1.84      2.83         1.84
  WS02006256WS02006235        4.32      4.33      6.23      3.20         0.01
  WS02006253WS02006251        0.71      0.71      0.78      0.01         0.03
  WS02006252WS02006251        0.76      0.76      1.42      1.24         0.01
  WS02006251WS02006249        0.71      0.72      0.79      0.59         0.28
  WS02006249WS02006248        0.70      0.70      0.79      1.91         0.01
  WS02006248WS02006247        0.77      0.77      0.91      0.01         0.01
  WS02006247WS02006245        0.89      0.94      0.89      2.34         0.88
  WS02006245WS02006243        0.90      0.91      0.93      0.19         0.03
  WS02006243WS02006242        0.96      0.96      1.23      0.01         0.01
  WS02006242WS02006240        1.08      1.08      1.32      1.27         0.01
  WS02006240WS02006239        1.11      1.11      1.16      0.50         0.34
  WS02006239WS02006238        1.26      1.30      1.33      0.54         0.38
  WS02006238WS02006235        1.31      1.31      1.44      0.01         0.01
  WS02006235WS02006234        1.12      1.12      1.28      4.16         0.01
  WS02006234WS02006232        1.20      1.20      1.46      0.41         0.45
  WS02006232WS02006231        0.69      0.69      1.46      0.59         0.01
  WS02006231WS02006230        0.33      0.33      0.76      4.50         0.01
  WS02006230WS02006229        2.32      2.53      2.32      5.02         2.32
  WS02006228WS02006109        1.89      2.16      1.89      3.57         1.89
  WS02006112WS02006115        0.01      0.01      0.54      0.01         0.01
  WS02006111WS02006112        0.01      0.01      2.86      0.01         0.01
  WS02006110WS02006113        0.01      0.01      2.04      0.01         0.01
  WS02006109WS02006110        0.44      0.44      2.16      0.45         0.01
  WS02004405WS02004406        0.01      0.01      0.01      0.36         0.01
  WS02004404WS02004405        0.01      0.01      0.01      4.97         0.01
  WS02003072WS02003073        0.01      0.01      0.01      4.36         0.01
  YS02001759YS02001757        5.50      5.50      5.56      0.01         0.01
  YS02001762YS02001759        5.47      5.47      5.50      0.01         0.01
  YS02001765YS02001762        5.45      5.45      5.47      0.01         0.01
  YS02001770YS02001767        5.42      5.42      5.42      0.01         0.40
  YS02001774YS02001770        5.40      5.40      5.46      0.01         0.01
  YS02001779YS02001774        4.98      4.98      5.46      0.01         0.01
  YS02001649YS02001757        5.48      5.48      5.56      0.01         0.01
  YS02001767YS02001765        5.42      5.42      5.45      0.01         0.01
  YS02001784YS02001785        0.01      0.01      0.01      0.64         0.01
  YS02001788YS02001790        0.01      0.01      0.68      0.01         0.01
  YS02001790YS02001791        0.68      0.68      0.86      0.01         0.01
  YS02001791YS02001793        0.86      0.86      1.28      0.01         0.01
  YS02001629YS02163301        5.39      5.39      5.41      0.01         0.01
  YS02001619YS02001622        4.64      4.64      4.67      0.01         0.01
  YS02001622YS02001625        4.67      4.67      5.31      0.01         0.01
  YS02001625YS02001629        4.64      4.64      5.31      0.01         0.01
  YS02163301YS02001633        5.41      5.41      5.45      0.01         0.01
  YS02163601YS02164001        5.44      5.44      5.48      0.01         0.01
  YS02164001YS02001641        5.44      5.44      5.46      0.01         0.01
  YS02001641YS02001644        5.46      5.46      5.46      0.01         0.47
  YS02001647YS02001649        5.28      5.28      5.48      0.01         0.01
  YS02001907YS02006553        0.71      0.71      0.98      0.01         0.01
  YS02006558YS02006561        0.01      0.01      0.01      0.35         0.01
  YS02001633YS02163601        5.44      5.44      5.48      0.01         0.01
  YS02001644YS02001647        5.28      5.28      5.46      0.01         0.01
  YS02001745YS02001748        0.01      0.01      4.29      0.01         0.01
  YS02001748YS02001751        4.41      4.41      4.69      0.01         0.01
  YS02001751YS02001754        4.69      4.69      5.10      0.01         0.01
  YS02001754YS02001757        5.25      5.25      5.56      0.01         0.01
  YS02001652YS02001649        5.30      5.30      5.48      0.01         0.01
  YS02001655YS02001652        4.75      4.75      5.21      0.01         0.01
  YS02001658YS02001655        4.32      4.32      4.75      0.01         0.01
  YS02001661YS02001658        0.01      0.01      4.32      0.01         0.01
  YS02001664YS02001661        0.01      0.01      0.09      0.01         0.01
  HS02004881HS02006253        0.01      0.01      0.29      0.01         0.01
  YS02001793JiankangQianchi        1.16      1.16      3.13      0.01         0.01
  YS02001757CaochengTiaoxuchi        4.45      4.45      5.56      0.01         0.01
  
  
  ***************
  Pumping Summary
  ***************
  
  ---------------------------------------------------------------------------------------------------------
                                                  Min       Avg       Max     Total     Power    % Time Off
                        Percent   Number of      Flow      Flow      Flow    Volume     Usage    Pump Curve
  Pump                 Utilized   Start-Ups       LPS       LPS       LPS  10^6 ltr     Kw-hr    Low   High
  ---------------------------------------------------------------------------------------------------------
  CC-Pump-1               40.40           4      0.00    136.12    200.00     1.500      1.68    0.0    0.0
  CC-Pump-2               31.88           6      0.00    105.85    200.00     1.020      1.28    0.0    0.0
  JK-Pump-1               44.68           5      0.00    163.20    300.00     2.095     40.40    0.0    0.0
  JK-Pump-2               40.42           4      0.00    256.63    683.00     3.140     56.57    0.0   96.9
  XR-Pump-1               93.60           3      0.00     91.71     95.00     2.394     45.89    0.0    0.0
  XR-Pump-2               87.21           5      0.00     89.67     95.00     2.109     39.92    0.0    0.0
  XR-Pump-3               85.09           5      0.00     88.54     95.00     2.052     38.54    0.0    0.0
  XR-Pump-4               85.09           5      0.00     88.54     95.00     2.052     38.54    0.0    0.0
  
  
  ***************************
  Link Pollutant Load Summary
  ***************************
  
  ------------------------------------------------------------------------------------------
                                 COD            SS            TN            TP         NH4-N
  Link                            kg            kg            kg            kg            kg
  ------------------------------------------------------------------------------------------
  WS02003066WSF200           364.713       630.830        12.854         1.272         7.168
  WS02006287WS02006284       134.880       236.805         6.794         0.762         4.004
  WS02006284WS02006280       135.303       237.488         6.834         0.766         4.028
  WS02006280WS02006229       135.286       237.456         6.833         0.766         4.028
  WS02006229WS02006228       371.648       642.529        12.631         1.228         6.993
  WS02006256WS02006235        68.790       116.448         1.973         0.175         1.058
  WS02006253WS02006251        26.436        47.884         0.708         0.059         0.368
  WS02006252WS02006251       167.867       285.937         3.754         0.276         1.858
  WS02006251WS02006249       184.238       316.763         4.234         0.319         2.114
  WS02006249WS02006248       178.833       307.527         4.113         0.310         2.053
  WS02006248WS02006247       178.413       306.852         4.102         0.309         2.048
  WS02006247WS02006245       177.609       305.503         4.082         0.307         2.038
  WS02006245WS02006243       176.515       303.727         4.052         0.305         2.022
  WS02006243WS02006242       176.911       304.481         4.066         0.306         2.030
  WS02006242WS02006240       178.607       307.398         4.115         0.310         2.056
  WS02006240WS02006239       181.141       311.759         4.183         0.316         2.093
  WS02006239WS02006238       184.845       317.892         4.303         0.328         2.159
  WS02006238WS02006235       187.238       321.767         4.375         0.334         2.198
  WS02006235WS02006234       241.199       413.209         5.927         0.472         3.032
  WS02006234WS02006232       240.597       412.162         5.922         0.473         3.030
  WS02006232WS02006231       239.523       410.362         5.891         0.470         3.014
  WS02006231WS02006230       238.468       408.626         5.863         0.468         3.000
  WS02006230WS02006229       237.921       407.739         5.857         0.468         2.998
  WS02006228WS02006109       370.688       640.914        12.610         1.227         6.982
  WS02006116WS02004401       374.416       647.115        13.200         1.305         7.361
  WS02006115WS02006116       375.794       649.411        13.249         1.310         7.388
  WS02006113WS02006111       375.941       649.122        13.307         1.317         7.426
  WS02006112WS02006115       377.375       652.045        13.320         1.318         7.429
  WS02006111WS02006112       375.210       647.895        13.285         1.315         7.414
  WS02006110WS02006113       376.849       650.631        13.347         1.321         7.449
  WS02006109WS02006110       378.450       653.289        13.418         1.329         7.490
  WS02004411WS02004412       367.440       635.435        12.972         1.284         7.236
  WS02004401WS02004402       372.954       644.684        13.132         1.298         7.321
  WS02004413WS02003067       364.996       631.303        12.858         1.272         7.170
  WS02004412WS02004413       366.551       633.941        12.938         1.281         7.217
  WS02004410WS02004411       368.052       636.459        12.993         1.286         7.248
  WS02004409WS02004410       368.776       637.675        13.023         1.289         7.265
  WS02004407WS02004409       369.189       638.361        13.034         1.290         7.270
  WS02004406WS02004407       369.128       638.248        13.022         1.288         7.263
  WS02004405WS02004406       370.531       640.586        13.096         1.297         7.307
  WS02004404WS02004405       371.069       641.484        13.095         1.296         7.304
  WS02004403WS02004404       370.651       640.859        13.022         1.286         7.257
  WS02004402WS02004403       371.784       642.743        13.081         1.293         7.292
  WS02004139WS02001211      1446.970      2325.220       133.574        16.595        83.182
  WS02004138WS02004139      1444.321      2320.981       133.320        16.563        83.023
  WS02003067WS02003066       364.865       631.093        12.860         1.272         7.172
  WS02001213WS02003059      1496.709      2404.798       138.351        17.192        86.168
  WS02001212WS02001213      1497.006      2405.273       138.380        17.196        86.186
  WS02001211WS02001212      1497.752      2406.469       138.450        17.205        86.230
  WS02003072WS02003073      1972.624      3213.473       161.940        19.807       100.048
  WS02003069WS02003072      1976.618      3219.975       162.285        19.849       100.263
  WS02003060WS02003069      1976.486      3219.787       162.254        19.845       100.242
  WS02003059WS02003060      1498.281      2407.329       138.490        17.210        86.255
  HS02004901HS02004770         3.817         7.030         0.073         0.005         0.034
  HS02004876HS02004881        14.806        27.631         0.397         0.033         0.206
  HS02004870HS02004876        11.321        21.015         0.339         0.029         0.179
  HS02004842HS02004848         2.078         3.718         0.045         0.003         0.021
  HS02004837HS02004842         6.696        11.066         0.513         0.062         0.314
  HS02004830HS02004837        51.611        84.950         4.290         0.527         2.657
  HS02004824HS02004830        52.361        86.152         4.362         0.536         2.702
  HS02004817HS02004824        60.574       101.451         4.559         0.550         2.801
  HS02004770HS02004777        14.685        27.285         0.314         0.021         0.143
  HS02004799HS02004480        57.856       102.878         2.245         0.232         1.261
  HS02004792HS02004799        53.343        93.981         2.209         0.234         1.252
  HS02004788HS02004792        33.662        59.051         1.685         0.186         0.982
  HS02004785HS02004788        16.183        29.695         0.466         0.040         0.239
  HS02004777HS02004785        15.643        28.821         0.417         0.034         0.209
  HS02004480HS02004478        70.748       127.467         2.419         0.242         1.336
  HS02004479HS02004480        17.175        31.412         0.582         0.061         0.329
  HS02004862HS02004870         8.444        15.343         0.282         0.026         0.152
  HS02004848HS02004852         2.647         4.793         0.057         0.004         0.026
  HS02004856HS02004862         5.011         9.406         0.103         0.007         0.048
  HS02004852HS02004856         2.643         4.785         0.057         0.004         0.026
  HS02004802HS02004478        64.442       109.849         4.403         0.523         2.685
  HS02004478WS02006287       135.062       237.107         6.810         0.763         4.013
  HS02004817HS02004807        59.209        99.268         4.429         0.534         2.720
  HS02004807HS02004802        65.086       110.875         4.465         0.531         2.724
  YS02001759YS02001757       152.635       261.087         3.369         0.237         1.675
  YS02001762YS02001759        80.015       137.924         1.947         0.143         0.989
  YS02001765YS02001762        79.435       136.836         1.959         0.145         0.998
  YS02001770YS02001767        77.002       132.872         1.660         0.106         0.808
  YS02001774YS02001770         5.047         8.646         0.124         0.009         0.063
  YS02001779YS02001774         4.160         6.958         0.202         0.022         0.118
  YS02001649YS02001757       221.542       368.048         4.832         0.351         2.342
  YS02001767YS02001765        79.415       136.741         1.972         0.146         1.007
  YS02006561YS02001783       317.476       539.058         8.259         0.690         4.325
  YS02001783YS02001784       317.403       538.954         8.256         0.690         4.323
  YS02001784YS02001785       324.790       550.797         8.969         0.779         4.770
  YS02001788YS02001790       325.488       551.947         9.043         0.788         4.816
  YS02001790YS02001791       326.639       553.829         9.145         0.801         4.879
  YS02001791YS02001793       326.550       553.667         9.141         0.801         4.877
  YS02001910YS02001907       108.742       181.243         3.930         0.369         2.186
  YS02001786YS02001788       325.027       551.194         8.997         0.783         4.787
  YS02001915YS02001910       108.650       181.052         3.883         0.362         2.155
  YS02001918YS02001915        55.566        88.885         2.702         0.297         1.590
  YS02001923YS02001920        35.569        56.903         0.758         0.053         0.374
  YS02001926YS02001923        35.205        56.319         0.719         0.049         0.349
  YS02001929YS02001926        34.940        55.884         0.688         0.044         0.329
  YS02001920YS02001918        55.499        88.798         2.676         0.293         1.573
  YS02001629YS02163301        39.673        65.910         0.879         0.055         0.407
  YS02001619YS02001622        43.122        71.301         0.959         0.060         0.442
  YS02001622YS02001625        42.317        70.120         0.938         0.058         0.433
  YS02001625YS02001629        41.204        68.471         0.911         0.057         0.421
  YS02163301YS02001633        39.956        66.415         0.882         0.056         0.409
  YS02163601YS02164001       111.858       184.508         2.408         0.171         1.161
  YS02164001YS02001641       111.500       183.931         2.388         0.168         1.150
  YS02001641YS02001644       112.219       185.121         2.394         0.169         1.151
  YS02001647YS02001649       179.816       297.014         3.755         0.264         1.807
  YS02006553YS02006556       230.155       389.454         6.326         0.552         3.372
  YS02006556YS02006558       230.101       389.347         6.294         0.547         3.351
  YSB6556YSB1171               9.114        16.826         0.242         0.023         0.131
  YS02001907YS02006553       230.142       389.453         6.323         0.551         3.371
  YS02006558YS02006561       317.411       538.931         8.257         0.690         4.324
  YS02001633YS02163601       112.511       185.484         2.391         0.167         1.147
  YS02001644YS02001647       181.939       300.282         3.784         0.266         1.818
  YS02001745YS02001748        60.277       102.327         1.301         0.077         0.625
  YS02001748YS02001751        64.413       109.064         1.721         0.130         0.889
  YS02001751YS02001754        62.437       105.650         1.719         0.134         0.896
  YS02001754YS02001757        63.364       107.116         1.889         0.156         1.006
  YS02001882YS02001884         0.770         1.241         0.021         0.002         0.011
  YS02001884YS02001887         2.881         4.822         0.069         0.006         0.036
  YS02001890YS02001895       122.559       209.888         2.420         0.185         1.199
  YS02001895YS02001898       122.418       209.686         2.414         0.184         1.195
  YS02001898YS02001901       122.295       209.510         2.411         0.184         1.194
  YS02001901YS02001904       122.326       209.593         2.429         0.186         1.206
  YS02001904YS02001907       122.998       210.711         2.515         0.197         1.260
  YS02001887YS02001890       123.410       211.202         2.483         0.192         1.237
  YS02001652YS02001649        51.054        85.802         1.279         0.101         0.626
  YS02001655YS02001652        51.990        87.268         1.304         0.103         0.638
  YS02001658YS02001655        50.786        85.340         1.099         0.075         0.505
  YS02001661YS02001658        53.694        90.205         1.147         0.078         0.524
  YS02001664YS02001661        57.962        96.966         1.244         0.084         0.568
  YSB1154YSB6556               8.621        16.042         0.181         0.015         0.093
  YSB1174YSB1171               6.201        11.598         0.162         0.015         0.087
  YSB1171HS02004479           17.084        31.275         0.572         0.059         0.323
  HS02004881HS02006253        16.681        31.266         0.430         0.035         0.221
  YS02001793JiankangQianchi       327.426       555.072         9.193         0.806         4.908
  YS02001757CaochengTiaoxuchi       397.348       671.775         8.943         0.653         4.421
  WSF200WS02003060           364.986       631.324        12.873         1.274         7.180
  1                         1983.618      3231.279       162.974        19.936       100.694
  CC-Pump-1                  100.106       170.602         2.232         0.164         1.104
  CC-Pump-2                   67.606       115.089         1.510         0.111         0.747
  JK-Pump-1                   58.113        98.380         1.643         0.145         0.879
  JK-Pump-2                  132.281       223.940         3.741         0.329         2.000
  XR-Pump-1                  408.989       657.063        37.834         4.702        23.565
  XR-Pump-2                  352.322       566.257        32.480         4.035        20.225
  XR-Pump-3                  341.567       548.931        31.509         3.914        19.621
  XR-Pump-4                  341.567       548.931        31.509         3.914        19.621
  

  Analysis begun on:  Sun Jul 11 10:57:38 2021
  Analysis ended on:  Sun Jul 11 10:57:40 2021
  Total elapsed time: 00:00:02