
  EPA STORM WATER MANAGEMENT MODEL - VERSION 5.1 (Build 5.3.0.dev0)
  --------------------------------------------------------------

  WARNING 04: minimum elevation drop used for Conduit WS02004404WS02004405
  WARNING 03: negative offset ignored for Link YS02001904YS02001907
  
  *********************************************************
  NOTE: The summary statistics displayed in this report are
  based on results found at every computational time step,  
  not just on results from each reporting time step.
  *********************************************************
  
  ****************
  Analysis Options
  ****************
  Flow Units ............... LPS
  Process Models:
    Rainfall/Runoff ........ YES
    RDII ................... NO
    Snowmelt ............... NO
    Groundwater ............ NO
    Flow Routing ........... YES
    Ponding Allowed ........ NO
    Water Quality .......... YES
  Infiltration Method ...... HORTON
  Flow Routing Method ...... DYNWAVE
  Surcharge Method ......... EXTRAN
  Starting Date ............ 08/28/2015 08:00:00
  Ending Date .............. 08/28/2015 15:50:00
  Antecedent Dry Days ...... 8.0
  Report Time Step ......... 00:01:00
  Wet Time Step ............ 00:01:00
  Dry Time Step ............ 00:01:00
  Routing Time Step ........ 5.00 sec
  Variable Time Step ....... YES
  Maximum Trials ........... 8
  Number of Threads ........ 4
  Head Tolerance ........... 0.001500 m
  
  
  **************************        Volume         Depth
  Runoff Quantity Continuity     hectare-m            mm
  **************************     ---------       -------
  Total Precipitation ......         2.737         5.993
  Evaporation Loss .........         0.000         0.000
  Infiltration Loss ........         0.582         1.275
  Surface Runoff ...........         1.604         3.513
  Final Storage ............         0.551         1.207
  Continuity Error (%) .....        -0.022
  
  
  **************************           COD            SS            TN            TP         NH4-N
  Runoff Quality Continuity             kg            kg            kg            kg            kg
  **************************    ----------    ----------    ----------    ----------    ----------
  Initial Buildup ..........     41378.656     70582.865      1804.177       168.684      1032.807
  Surface Buildup ..........        15.412        20.796         2.976         0.274         1.759
  Wet Deposition ...........         0.000         0.000         0.000         0.000         0.000
  Sweeping Removal .........         0.000         0.000         0.000         0.000         0.000
  Infiltration Loss ........        30.040        53.217         0.590         0.040         0.277
  BMP Removal ..............         0.000         0.000         0.000         0.000         0.000
  Surface Runoff ...........       987.868      1696.868        19.907         1.296         9.387
  Remaining Buildup ........     40375.838     68853.027      1786.648       167.622      1024.898
  Continuity Error (%) .....         0.001         0.001         0.000         0.000         0.000
  
  
  **************************        Volume        Volume
  Flow Routing Continuity        hectare-m      10^6 ltr
  **************************     ---------     ---------
  Dry Weather Inflow .......         0.616         6.165
  Wet Weather Inflow .......         1.604        16.036
  Groundwater Inflow .......         0.000         0.000
  RDII Inflow ..............         0.000         0.000
  External Inflow ..........         0.102         1.024
  External Outflow .........         1.460        14.603
  Flooding Loss ............         0.478         4.782
  Evaporation Loss .........         0.000         0.000
  Exfiltration Loss ........         0.000         0.000
  Initial Stored Volume ....         0.076         0.761
  Final Stored Volume ......         0.544         5.439
  Continuity Error (%) .....        -3.497
  
  
  **************************           COD            SS            TN            TP         NH4-N
  Quality Routing Continuity            kg            kg            kg            kg            kg
  **************************    ----------    ----------    ----------    ----------    ----------
  Dry Weather Inflow .......      1541.201      2465.922       147.955        18.494        92.472
  Wet Weather Inflow .......       987.558      1696.381        19.900         1.295         9.384
  Groundwater Inflow .......         0.000         0.000         0.000         0.000         0.000
  RDII Inflow ..............         0.000         0.000         0.000         0.000         0.000
  External Inflow ..........       183.418       293.469        17.608         2.201        11.005
  External Outflow .........      1958.438      3200.464       158.730        19.382        97.981
  Flooding Loss ............       274.374       462.672         6.812         0.550         3.502
  Exfiltration Loss ........         0.000         0.000         0.000         0.000         0.000
  Mass Reacted .............         0.000         0.000         0.000         0.000         0.000
  Initial Stored Mass ......         0.000         0.000         0.000         0.000         0.000
  Final Stored Mass ........       397.771       657.536        17.486         1.843        10.077
  Continuity Error (%) .....         3.008         3.032         1.313         0.981         1.154
  
  
  *************************
  Highest Continuity Errors
  *************************
  Node YS02001774 (34.88%)
  Node HS02004842 (24.23%)
  Node YS02001884 (18.16%)
  Node JK-storage (-17.60%)
  Node WS02006253 (5.64%)
  
  
  ***************************
  Time-Step Critical Elements
  ***************************
  Link WS02006252WS02006251 (60.73%)
  Link WS02006280WS02006229 (12.40%)
  Link WS02006238WS02006235 (9.78%)
  Link YS02001793JiankangQianchi (4.79%)
  Link WS02006229WS02006228 (1.45%)
  
  
  ********************************
  Highest Flow Instability Indexes
  ********************************
  Link WS02006113WS02006111 (52)
  Link YS02001619YS02001622 (24)
  Link YS02001629YS02163301 (23)
  Link YS02001774YS02001770 (23)
  Link YS02163301YS02001633 (23)
  
  
  *************************
  Routing Time Step Summary
  *************************
  Minimum Time Step           :     0.40 sec
  Average Time Step           :     1.43 sec
  Maximum Time Step           :     5.00 sec
  Percent in Steady State     :    -0.00
  Average Iterations per Step :     3.64
  Percent Not Converging      :    13.41
  
  
  ***************************
  Subcatchment Runoff Summary
  ***************************
  
  ------------------------------------------------------------------------------------------------------------------------------
                            Total      Total      Total      Total     Imperv       Perv      Total       Total     Peak  Runoff
                           Precip      Runon       Evap      Infil     Runoff     Runoff     Runoff      Runoff   Runoff   Coeff
  Subcatchment                 mm         mm         mm         mm         mm         mm         mm    10^6 ltr      LPS
  ------------------------------------------------------------------------------------------------------------------------------
  sub0                       5.99       0.00       0.00       0.41       5.53       0.01       5.54        0.00     1.95   0.924
  sub1                       5.99       0.00       0.00       0.65       5.25       0.01       5.25        0.03    11.02   0.876
  sub2                       5.99       0.00       0.00       2.21       3.70       0.00       3.70        0.03     9.83   0.617
  sub3                       5.99       0.00       0.00       2.21       3.66       0.00       3.66        0.08    20.34   0.611
  sub4                       5.99       0.00       0.00       0.66       5.11       0.00       5.11        0.11    22.82   0.852
  sub5                       5.99       0.00       0.00       0.41       5.48       0.01       5.49        0.06    19.60   0.916
  sub7                       5.99       0.00       0.00       0.53       5.39       0.01       5.40        0.02     6.74   0.901
  sub8                       5.99       0.00       0.00       0.53       5.38       0.01       5.39        0.03    12.02   0.900
  sub9                       5.99       0.00       0.00       0.53       5.38       0.01       5.39        0.03     8.93   0.899
  sub10                      5.99       0.00       0.00       0.47       5.43       0.01       5.44        0.06    19.49   0.907
  sub11                      5.99       0.00       0.00       0.47       5.45       0.01       5.45        0.06    22.53   0.910
  sub12                      5.99       0.00       0.00       0.77       5.17       0.01       5.18        0.05    18.42   0.864
  sub14                      5.99       0.00       0.00       0.53       5.38       0.01       5.39        0.05    17.49   0.899
  sub15                      5.99       0.00       0.00       1.79       4.14       0.01       4.14        0.07    23.80   0.691
  sub16                      5.99       0.00       0.00       1.97       3.98       0.01       3.99        0.04    16.38   0.665
  sub17                      5.99       0.00       0.00       1.91       4.03       0.01       4.04        0.03    13.31   0.675
  sub22                      5.99       0.00       0.00       2.57       3.38       0.01       3.38        0.21    76.94   0.564
  sub23                      5.99       0.00       0.00       2.21       3.73       0.01       3.74        0.18    65.32   0.624
  sub60                      5.99       0.00       0.00       0.72       3.86       0.00       3.86        1.17   111.44   0.644
  sub61                      5.99       0.00       0.00       1.02       4.06       0.00       4.06        1.25   141.56   0.677
  sub62                      5.99       0.00       0.00       0.48       4.37       0.00       4.37        1.34   144.14   0.730
  sub63                      5.99       0.00       0.00       1.74       3.59       0.00       3.59        1.09   132.77   0.600
  sub64                      5.99       0.00       0.00       0.90       3.69       0.00       3.69        1.12   105.76   0.616
  sub65                      5.99       0.00       0.00       0.78       3.75       0.00       3.75        1.15   107.23   0.625
  sub66                      5.99       0.00       0.00       1.74       3.21       0.00       3.21        0.98    97.30   0.535
  sub67                      5.99       0.00       0.00       0.48       4.74       0.00       4.74        1.46   187.17   0.791
  sub68                      5.99       0.00       0.00       0.84       4.30       0.00       4.30        1.32   157.01   0.718
  sub69                      5.99       0.00       0.00       0.90       4.58       0.00       4.58        1.07   157.96   0.764
  sub70                      5.99       4.67       0.00       3.61       5.80       0.01       5.81        1.33   126.68   0.545
  sub71                      5.99       0.00       0.00       0.48       4.21       0.00       4.21        0.99   100.15   0.702
  sub72                      5.99       0.00       0.00       0.42       3.09       0.00       3.09        0.63    47.66   0.515
  1                          5.99       5.66       0.00       1.32       6.06       1.03       7.09        1.67   123.16   0.609
  2                          5.99       0.00       0.00       2.91       1.37       0.36       1.73        0.69    97.47   0.289
  
  
  ****************************
  Subcatchment Washoff Summary
  ****************************
  
  ------------------------------------------------------------------------------------------
                                 COD            SS            TN            TP         NH4-N
  Subcatchment                    kg            kg            kg            kg            kg
  ------------------------------------------------------------------------------------------
  sub0                         0.961         1.818         0.016         0.001         0.008
  sub1                         3.835         7.314         0.071         0.005         0.034
  sub2                         2.180         3.995         0.048         0.003         0.022
  sub3                         5.250         9.479         0.114         0.007         0.052
  sub4                         8.297        15.660         0.169         0.010         0.081
  sub5                         8.856        16.687         0.155         0.012         0.075
  sub7                         2.044         3.987         0.038         0.003         0.018
  sub8                         3.065         6.088         0.062         0.004         0.029
  sub9                         2.600         5.095         0.050         0.003         0.024
  sub10                        7.350        14.040         0.133         0.009         0.064
  sub11                        7.320        14.197         0.136         0.009         0.065
  sub12                        6.175        11.804         0.110         0.008         0.053
  sub14                        5.522        10.720         0.104         0.007         0.050
  sub15                        6.474        11.966         0.126         0.009         0.059
  sub16                        4.150         7.695         0.079         0.006         0.037
  sub17                        3.802         6.985         0.070         0.005         0.033
  sub22                       19.140        34.654         0.369         0.027         0.171
  sub23                       11.726        22.036         0.258         0.016         0.117
  sub60                       63.331       107.839         1.341         0.077         0.640
  sub61                       80.432       136.752         1.554         0.101         0.745
  sub62                       84.700       146.600         1.738         0.104         0.831
  sub63                       60.304       101.281         1.291         0.087         0.589
  sub64                       75.625       123.914         1.444         0.101         0.684
  sub65                       77.522       127.572         1.493         0.102         0.709
  sub66                       45.520        75.440         1.010         0.063         0.466
  sub67                      127.778       220.038         2.317         0.164         1.115
  sub68                       90.467       155.780         1.806         0.116         0.857
  sub69                       85.063       149.157         1.640         0.111         0.779
  sub70                      128.618       224.598         2.691         0.179         1.243
  sub71                       55.978        97.607         1.229         0.067         0.585
  sub72                       37.088        59.563         0.728         0.047         0.349
  1                           69.911       123.060         1.512         0.101         0.688
  2                           10.467        17.201         0.337         0.020         0.141
  ------------------------------------------------------------------------------------------
  System                    1201.549      2070.623        24.239         1.585        11.409
  
  
  ******************
  Node Depth Summary
  ******************
  
  ---------------------------------------------------------------------------------
                                 Average  Maximum  Maximum  Time of Max    Reported
                                   Depth    Depth      HGL   Occurrence   Max Depth
  Node                 Type       Meters   Meters   Meters  days hr:min      Meters
  ---------------------------------------------------------------------------------
  WS02001211           JUNCTION     0.69     0.79     5.63     0  04:44        0.79
  WS02001212           JUNCTION     0.41     0.50     5.56     0  04:43        0.50
  WS02001213           JUNCTION     0.64     0.75     5.51     0  04:43        0.75
  WS02003069           JUNCTION     0.43     0.57     5.15     0  04:42        0.57
  WS02003072           JUNCTION     0.49     0.62     5.00     0  04:42        0.62
  WS02003073           JUNCTION     0.29     0.38     4.45     0  04:43        0.38
  WS02003060           JUNCTION     0.38     0.50     5.43     0  04:41        0.50
  WS02003066           JUNCTION     0.20     0.29     5.84     0  04:39        0.29
  WS02003059           JUNCTION     0.69     0.80     5.49     0  04:42        0.80
  WS02003067           JUNCTION     0.51     0.69     6.01     0  04:39        0.69
  WS02004401           JUNCTION     0.61     0.83     6.83     0  04:36        0.83
  WS02004402           JUNCTION     0.64     0.86     6.82     0  04:36        0.86
  WS02004403           JUNCTION     0.66     0.88     6.81     0  04:36        0.88
  WS02004404           JUNCTION     0.74     0.95     6.80     0  04:36        0.95
  WS02004406           JUNCTION     0.75     0.95     6.78     0  04:36        0.95
  WS02004409           JUNCTION     0.42     0.64     6.41     0  04:38        0.64
  WS02004410           JUNCTION     0.44     0.66     6.38     0  04:38        0.66
  WS02004411           JUNCTION     0.46     0.67     6.35     0  04:39        0.67
  WS02004412           JUNCTION     0.47     0.68     6.32     0  04:39        0.68
  WS02004413           JUNCTION     0.63     0.84     6.31     0  04:39        0.84
  WS02004405           JUNCTION     0.74     0.94     6.79     0  04:36        0.94
  WS02006109           JUNCTION     0.69     0.99     7.61     0  04:31        0.99
  WS02006110           JUNCTION     0.69     0.93     7.52     0  04:31        0.93
  WS02006111           JUNCTION     0.19     0.29     7.00     0  04:32        0.29
  WS02006112           JUNCTION     0.77     1.04     6.92     0  04:35        1.04
  WS02006113           JUNCTION     0.30     0.46     7.35     0  04:32        0.46
  WS02006115           JUNCTION     0.50     0.73     6.87     0  04:35        0.73
  WS02006116           JUNCTION     0.58     0.81     6.85     0  04:36        0.81
  WS02006230           JUNCTION     0.64     1.13     7.87     0  04:31        1.11
  WS02006231           JUNCTION     0.42     0.88     8.00     0  04:31        0.86
  WS02006232           JUNCTION     0.55     1.07     8.11     0  04:31        1.06
  WS02006234           JUNCTION     0.47     1.08     8.24     0  04:31        1.07
  WS02006235           JUNCTION     0.50     1.17     8.34     0  04:31        1.14
  WS02006238           JUNCTION     0.53     1.20     8.34     0  04:31        1.19
  WS02006240           JUNCTION     0.43     1.14     8.43     0  04:31        1.13
  WS02006242           JUNCTION     0.49     1.22     8.49     0  04:31        1.20
  WS02006243           JUNCTION     0.38     1.13     8.55     0  04:31        1.12
  WS02006245           JUNCTION     0.37     1.11     8.60     0  04:31        1.10
  WS02006247           JUNCTION     0.38     1.13     8.63     0  04:31        1.12
  WS02006248           JUNCTION     0.33     1.08     8.67     0  04:32        1.08
  WS02006249           JUNCTION     0.36     1.09     8.69     0  04:30        1.09
  WS02006239           JUNCTION     0.48     1.18     8.39     0  04:31        1.17
  WS02006251           JUNCTION     0.35     1.20     8.87     0  04:30        1.12
  WS02006252           JUNCTION     0.27     0.74     8.99     0  04:30        0.67
  WS02006253           JUNCTION     0.38     1.24     8.89     0  04:30        1.15
  WS02006256           JUNCTION     1.34     2.35     9.28     0  00:00        2.35
  WS02004138           JUNCTION     0.16     0.20     7.45     0  00:00        0.19
  WS02004139           JUNCTION     0.64     0.73     5.64     0  04:44        0.73
  WS02004407           JUNCTION     0.19     0.29     6.60     0  04:36        0.29
  WS02006228           JUNCTION     0.68     1.04     7.69     0  04:31        1.02
  WS02006229           JUNCTION     0.65     1.04     7.73     0  04:31        1.03
  WS02006280           JUNCTION     0.05     0.17     8.44     0  02:12        0.17
  WS02006284           JUNCTION     0.34     0.52     8.92     0  02:12        0.52
  WS02006287           JUNCTION     0.07     0.26     9.21     0  02:12        0.26
  WSF200               JUNCTION     0.18     0.29     5.52     0  04:39        0.29
  HS02004901           JUNCTION     0.10     0.26    10.09     0  02:09        0.26
  HS02004881           JUNCTION     0.01     0.03     9.06     0  02:11        0.03
  HS02004876           JUNCTION     0.03     0.11     9.14     0  02:06        0.11
  HS02004870           JUNCTION     0.01     0.05     9.34     0  02:12        0.05
  HS02004862           JUNCTION     0.01     0.06     9.45     0  02:12        0.06
  HS02004856           JUNCTION     0.07     0.11     9.54     0  02:12        0.11
  HS02004852           JUNCTION     0.01     0.04     9.55     0  02:13        0.04
  HS02004848           JUNCTION     0.01     0.04     9.64     0  02:11        0.04
  HS02004842           JUNCTION     0.33     0.37     9.64     0  02:11        0.37
  HS02004837           JUNCTION     0.03     0.06     9.64     0  02:11        0.06
  HS02004830           JUNCTION     0.04     0.07     9.54     0  02:12        0.07
  HS02004824           JUNCTION     0.02     0.05     9.45     0  02:14        0.05
  HS02004817           JUNCTION     0.42     0.56     9.41     0  02:12        0.56
  HS02004807           JUNCTION     0.11     0.24     9.41     0  02:12        0.24
  HS02004802           JUNCTION     0.15     0.27     9.40     0  02:12        0.27
  HS02004799           JUNCTION     0.09     0.31     9.52     0  02:10        0.31
  HS02004792           JUNCTION     0.02     0.12     9.65     0  02:10        0.12
  HS02004788           JUNCTION     0.02     0.09     9.99     0  02:10        0.09
  HS02004785           JUNCTION     0.03     0.16    10.06     0  02:10        0.16
  HS02004777           JUNCTION     0.13     0.28    10.08     0  02:10        0.28
  HS02004770           JUNCTION     0.10     0.26    10.09     0  02:10        0.26
  HS02004480           JUNCTION     0.06     0.24     9.48     0  02:10        0.24
  HS02004479           JUNCTION     0.09     0.28     9.48     0  02:11        0.28
  HS02004478           JUNCTION     0.05     0.16     9.39     0  02:11        0.16
  YS02001745           JUNCTION     0.66     0.85     8.37     0  04:51        0.85
  YS02001748           JUNCTION     1.05     1.30     8.38     0  03:51        1.29
  YS02001751           JUNCTION     1.22     1.51     8.39     0  03:53        1.50
  YS02001754           JUNCTION     1.47     1.79     8.40     0  03:46        1.77
  YS02001762           JUNCTION     1.67     2.01     8.41     0  03:46        1.99
  YS02001765           JUNCTION     1.62     1.96     8.41     0  03:46        1.94
  YS02001767           JUNCTION     1.58     1.92     8.40     0  03:46        1.90
  YS02001770           JUNCTION     1.58     1.90     8.39     0  03:46        1.89
  YS02001774           JUNCTION     1.65     1.96     8.39     0  03:50        1.95
  YS02001779           JUNCTION     1.40     1.68     8.37     0  03:43        1.68
  YS02001882           JUNCTION     0.30     0.57     7.29     0  02:40        0.57
  YS02001884           JUNCTION     0.39     0.67     7.29     0  02:38        0.67
  YS02001759           JUNCTION     1.70     2.05     8.41     0  03:46        2.02
  YS02001887           JUNCTION     0.47     0.75     7.29     0  02:38        0.75
  YS02001890           JUNCTION     0.50     0.78     7.28     0  02:39        0.78
  YS02001898           JUNCTION     0.27     0.53     7.27     0  02:38        0.53
  YS02001901           JUNCTION     0.39     0.66     7.27     0  02:38        0.66
  YS02001904           JUNCTION     0.37     0.64     7.27     0  02:38        0.63
  YS02001907           JUNCTION     0.70     0.98     7.27     0  02:38        0.98
  YS02001910           JUNCTION     0.49     0.76     7.27     0  02:39        0.76
  YS02001915           JUNCTION     0.29     0.55     7.27     0  02:38        0.55
  YS02001918           JUNCTION     0.09     0.20     7.26     0  02:37        0.20
  YS02001619           JUNCTION     1.18     1.48     8.41     0  03:43        1.47
  YS02001629           JUNCTION     1.53     1.85     8.40     0  03:43        1.84
  YS02001641           JUNCTION     1.63     1.94     8.37     0  03:43        1.92
  YS02001644           JUNCTION     1.64     1.92     8.35     0  03:35        1.92
  YS02001652           JUNCTION     1.48     2.01     8.60     0  03:46        1.81
  YS02001655           JUNCTION     1.25     1.93     8.78     0  03:46        1.57
  YS02001920           JUNCTION     0.19     0.27     7.28     0  02:38        0.27
  YS02001923           JUNCTION     0.07     0.10     7.36     0  03:01        0.10
  YS02001926           JUNCTION     0.15     0.20     7.65     0  03:01        0.20
  YS02001929           JUNCTION     0.07     0.10     7.80     0  03:01        0.10
  YS02001658           JUNCTION     0.99     1.86     9.01     0  03:46        1.29
  YS02001661           JUNCTION     0.76     1.81     9.21     0  03:46        1.06
  YS02001664           JUNCTION     0.32     0.57     8.49     0  03:48        0.52
  YS02001622           JUNCTION     1.21     1.50     8.40     0  03:43        1.49
  YS02001633           JUNCTION     1.62     1.95     8.40     0  03:43        1.93
  YS02001649           JUNCTION     1.67     2.05     8.44     0  03:46        1.99
  YS02001757           JUNCTION     1.80     2.15     8.41     0  03:51        2.12
  YS02001895           JUNCTION     0.27     0.53     7.28     0  02:39        0.53
  YS02001625           JUNCTION     1.48     1.78     8.38     0  03:31        1.78
  YS02163301           JUNCTION     1.56     1.88     8.40     0  03:43        1.87
  YS02163601           JUNCTION     1.67     2.00     8.39     0  03:43        1.98
  YS02164001           JUNCTION     1.61     1.93     8.38     0  03:43        1.91
  YS02001647           JUNCTION     1.47     1.80     8.41     0  03:46        1.76
  YSB1154              JUNCTION     0.23     0.43     9.49     0  02:11        0.43
  YSB6556              JUNCTION     0.13     0.32     9.49     0  02:10        0.32
  YSB1174              JUNCTION     0.18     0.38     9.49     0  02:11        0.38
  YSB1171              JUNCTION     0.39     0.58     9.49     0  02:11        0.58
  YS02006553           JUNCTION     0.70     0.98     7.26     0  02:39        0.98
  YS02006561           JUNCTION     0.15     0.30     6.96     0  02:37        0.29
  YS02006556           JUNCTION     0.67     0.95     7.26     0  02:37        0.95
  YS02006558           JUNCTION     0.72     0.99     7.26     0  02:37        0.99
  YS02001783           JUNCTION     0.26     0.73     6.87     0  02:27        0.73
  YS02001784           JUNCTION     0.29     0.79     6.86     0  02:26        0.75
  YS02001786           JUNCTION     0.25     0.77     6.80     0  02:26        0.75
  YS02001788           JUNCTION     0.19     0.79     6.77     0  03:13        0.77
  YS02001790           JUNCTION     0.25     1.26     6.90     0  02:24        1.06
  YS02001791           JUNCTION     0.19     1.43     6.90     0  02:22        1.18
  YS02001793           JUNCTION     0.26     1.79     6.62     0  03:12        1.78
  WSC                  OUTFALL      0.29     0.38     1.05     0  04:43        0.38
  JK-storage           STORAGE      2.07     5.80     6.60     0  02:25        5.80
  CC-storage           STORAGE      1.08     1.38     8.38     0  04:47        1.38
  XR-storage           STORAGE      3.02     6.59     4.59     0  06:25        6.59
  
  
  *******************
  Node Inflow Summary
  *******************
  
  -------------------------------------------------------------------------------------------------
                                  Maximum  Maximum                  Lateral       Total        Flow
                                  Lateral    Total  Time of Max      Inflow      Inflow     Balance
                                   Inflow   Inflow   Occurrence      Volume      Volume       Error
  Node                 Type           LPS      LPS  days hr:min    10^6 ltr    10^6 ltr     Percent
  -------------------------------------------------------------------------------------------------
  WS02001211           JUNCTION      7.35   389.14     0  04:49       0.207        8.62       0.469
  WS02001212           JUNCTION      0.00   390.80     0  04:48           0        8.59       0.245
  WS02001213           JUNCTION      0.00   392.34     0  04:48           0        8.58       0.369
  WS02003069           JUNCTION      0.32   892.92     0  04:41     0.00902        14.7       0.253
  WS02003072           JUNCTION      0.00   892.81     0  04:42           0        14.6       0.296
  WS02003073           JUNCTION      1.82   894.72     0  04:42      0.0514        14.7       0.335
  WS02003060           JUNCTION     16.53   892.67     0  04:41       0.466        14.7       0.245
  WS02003066           JUNCTION      0.00   502.02     0  04:39           0        5.79       0.095
  WS02003059           JUNCTION      0.00   394.78     0  04:47           0        8.57       0.475
  WS02003067           JUNCTION      0.00   501.78     0  04:39           0         5.8       0.188
  WS02004401           JUNCTION      0.00   522.99     0  04:33           0        6.08       0.440
  WS02004402           JUNCTION      0.00   520.50     0  04:35           0        6.05       0.406
  WS02004403           JUNCTION      0.00   519.48     0  04:35           0        6.03       0.360
  WS02004404           JUNCTION      0.16   518.82     0  04:35     0.00457        6.01       0.261
  WS02004406           JUNCTION      0.00   519.05     0  04:36           0        5.97       0.637
  WS02004409           JUNCTION      0.00   517.82     0  04:36           0        5.92       0.370
  WS02004410           JUNCTION      0.00   511.56     0  04:37           0         5.9       0.403
  WS02004411           JUNCTION      0.00   507.12     0  04:38           0        5.88       0.403
  WS02004412           JUNCTION      0.00   504.55     0  04:38           0        5.86       0.422
  WS02004413           JUNCTION      0.00   502.53     0  04:38           0        5.83       0.605
  WS02004405           JUNCTION      0.04   518.72     0  04:36     0.00107           6       0.393
  WS02006109           JUNCTION      1.23   553.40     0  04:31      0.0347        6.19       0.286
  WS02006110           JUNCTION      0.00   553.27     0  04:31           0        6.17       0.383
  WS02006111           JUNCTION      0.00   576.20     0  04:32           0        6.14       0.102
  WS02006112           JUNCTION     13.31   554.99     0  04:32      0.0347        6.16       0.529
  WS02006113           JUNCTION      0.00   553.67     0  04:31           0        6.15       0.224
  WS02006115           JUNCTION      0.00   548.50     0  04:33           0        6.13       0.450
  WS02006116           JUNCTION      0.00   533.84     0  04:33           0         6.1       0.424
  WS02006230           JUNCTION     10.28   531.45     0  04:31        0.29        5.09       0.344
  WS02006231           JUNCTION      0.00   520.55     0  04:31           0        4.81       0.365
  WS02006232           JUNCTION      0.00   521.33     0  04:31           0        4.83       0.386
  WS02006234           JUNCTION      0.00   521.76     0  04:31           0        4.83       0.205
  WS02006235           JUNCTION      0.00   522.10     0  04:31           0        4.92       0.287
  WS02006238           JUNCTION      0.00   381.49     0  07:11           0        2.56       0.138
  WS02006240           JUNCTION      0.00   383.36     0  07:10           0        2.52       0.686
  WS02006242           JUNCTION      0.00   383.66     0  07:10           0        2.51       0.784
  WS02006243           JUNCTION      0.00   384.02     0  07:10           0         2.5       0.455
  WS02006245           JUNCTION      0.00   384.38     0  07:10           0        2.51       0.706
  WS02006247           JUNCTION      0.00   385.71     0  07:03           0        2.52       0.508
  WS02006248           JUNCTION      0.00   390.05     0  07:03           0        2.53       0.282
  WS02006249           JUNCTION      0.00   413.39     0  07:44           0        2.57       0.766
  WS02006239           JUNCTION      0.00   381.95     0  07:11           0        2.54       0.254
  WS02006251           JUNCTION      0.08   406.32     0  07:44     0.00217        2.65       0.690
  WS02006252           JUNCTION      0.00   400.00     0  07:00           0         2.4       0.026
  WS02006253           JUNCTION      1.95   108.18     0  05:51     0.00449       0.267       5.975
  WS02006256           JUNCTION      0.00   983.00     0  00:00           0         5.1      -0.001
  WS02004138           JUNCTION      0.00   380.00     0  00:00           0        8.44       0.073
  WS02004139           JUNCTION      0.32   396.51     0  00:00     0.00905        8.45       0.536
  WS02004407           JUNCTION      0.00   518.29     0  04:36           0        5.94       0.170
  WS02006228           JUNCTION      0.00   552.01     0  04:31           0        6.17       0.260
  WS02006229           JUNCTION      0.00   549.90     0  04:31           0         6.2       0.286
  WS02006280           JUNCTION      0.00   306.57     0  02:12           0        1.13       0.006
  WS02006284           JUNCTION      0.10   306.53     0  02:12      0.0027        1.13       0.106
  WS02006287           JUNCTION      0.00   306.39     0  02:12           0        1.13       0.063
  WSF200               JUNCTION      0.00   502.12     0  04:39           0        5.78       0.090
  HS02004901           JUNCTION     16.38    16.38     0  02:06      0.0417      0.0419       4.378
  HS02004881           JUNCTION      6.74    60.44     0  02:10      0.0182       0.193       0.050
  HS02004876           JUNCTION     11.02    53.89     0  02:11      0.0349       0.175       0.302
  HS02004870           JUNCTION     12.02    43.15     0  02:11      0.0344       0.141       0.075
  HS02004862           JUNCTION     10.03    31.90     0  02:12      0.0401       0.106       0.159
  HS02004856           JUNCTION      8.93    21.98     0  02:11      0.0259      0.0677       2.170
  HS02004852           JUNCTION      0.00    13.61     0  02:11           0      0.0419       0.122
  HS02004848           JUNCTION     20.34    20.34     0  02:13      0.0825      0.0825       0.052
  HS02004842           JUNCTION      0.00     7.39     0  02:21           0      0.0536      31.986
  HS02004837           JUNCTION     25.84    32.11     0  02:11       0.239        0.28       0.291
  HS02004830           JUNCTION      0.15    32.23     0  02:11     0.00423        0.27       0.458
  HS02004824           JUNCTION     22.87    54.92     0  02:14       0.108       0.377       0.142
  HS02004817           JUNCTION      0.60    55.51     0  02:14      0.0169       0.393       4.427
  HS02004807           JUNCTION     22.53    76.26     0  02:13      0.0634        0.44       0.970
  HS02004802           JUNCTION      0.00    76.74     0  02:14           0       0.436       0.941
  HS02004799           JUNCTION     17.49   196.10     0  02:10      0.0513       0.605       0.392
  HS02004792           JUNCTION     77.22   178.91     0  02:09       0.221       0.554       0.074
  HS02004788           JUNCTION     25.47   103.99     0  02:10       0.118       0.334       0.117
  HS02004785           JUNCTION      0.15    78.97     0  02:09     0.00423       0.217       0.221
  HS02004777           JUNCTION      0.03    79.36     0  02:08    0.000846       0.217       2.438
  HS02004770           JUNCTION     65.32    80.51     0  02:08       0.178       0.218       1.436
  HS02004480           JUNCTION      0.00   231.35     0  02:10           0       0.709       0.107
  HS02004479           JUNCTION      0.00    36.10     0  02:11           0       0.117       0.629
  HS02004478           JUNCTION      0.00   306.37     0  02:12           0        1.13       0.050
  YS02001745           JUNCTION    111.44   141.45     0  03:00        1.17        1.17       0.776
  YS02001748           JUNCTION      0.04   295.75     0  02:47     0.00127        1.18       1.949
  YS02001751           JUNCTION      0.01   375.81     0  02:50     0.00031        1.16       1.877
  YS02001754           JUNCTION      0.26   193.18     0  02:53     0.00733        1.13       2.204
  YS02001762           JUNCTION      0.00   180.72     0  02:47           0        1.27       1.719
  YS02001765           JUNCTION      0.00   177.05     0  02:47           0        1.27       1.966
  YS02001767           JUNCTION      0.54   173.47     0  02:48      0.0151        1.29       2.859
  YS02001770           JUNCTION    144.29   170.70     0  02:49        1.35        1.36       2.357
  YS02001774           JUNCTION      0.00    49.74     0  02:07           0      0.0729      53.559
  YS02001779           JUNCTION      0.01    39.04     0  02:22    0.000141      0.0333      86.005
  YS02001882           JUNCTION      0.00     5.56     0  02:04           0     0.00736      32.694
  YS02001884           JUNCTION      0.00    15.54     0  02:04           0      0.0285      22.186
  YS02001759           JUNCTION    141.60   321.38     0  02:47        1.25        2.48       0.929
  YS02001887           JUNCTION    187.62   188.95     0  02:29        1.48        1.49       0.503
  YS02001890           JUNCTION      0.00   187.67     0  02:31           0        1.46       0.562
  YS02001898           JUNCTION      0.00   187.04     0  02:38           0        1.45       0.169
  YS02001901           JUNCTION      0.00   188.12     0  02:38           0        1.45       0.406
  YS02001904           JUNCTION      0.00   189.05     0  02:38           0        1.45       0.376
  YS02001907           JUNCTION      0.00   342.28     0  02:37           0        3.13       0.726
  YS02001910           JUNCTION      0.00   153.10     0  02:50           0        1.69       0.626
  YS02001915           JUNCTION    100.17   151.04     0  02:51       0.994         1.7       0.290
  YS02001918           JUNCTION      0.00    51.61     0  03:03           0       0.706       0.190
  YS02001619           JUNCTION     97.30    97.30     0  02:41       0.983       0.983       1.219
  YS02001629           JUNCTION      0.00   220.27     0  02:53           0       0.906       3.181
  YS02001641           JUNCTION      0.00   217.70     0  02:50           0        1.96       1.081
  YS02001644           JUNCTION    105.80   416.68     0  04:52        1.12        3.86       0.681
  YS02001652           JUNCTION      0.00   189.88     0  02:48           0        1.04       2.292
  YS02001655           JUNCTION      0.15   352.54     0  02:48     0.00434        1.06       2.016
  YS02001920           JUNCTION      2.87    50.60     0  03:01      0.0809       0.708       0.323
  YS02001923           JUNCTION      0.04    47.73     0  03:01     0.00106       0.628       0.058
  YS02001926           JUNCTION      0.05    47.71     0  03:01     0.00147       0.629       0.401
  YS02001929           JUNCTION     47.66    47.66     0  03:01       0.628       0.628       0.056
  YS02001658           JUNCTION      0.00   347.14     0  02:56           0        1.11       1.930
  YS02001661           JUNCTION      0.00   441.81     0  03:42           0        1.35       0.609
  YS02001664           JUNCTION    132.77   382.12     0  03:41        1.09        1.33       0.245
  YS02001622           JUNCTION      0.00   157.23     0  02:54           0       0.972       3.356
  YS02001633           JUNCTION    107.43   219.57     0  02:48        1.16        2.02       1.613
  YS02001649           JUNCTION      0.00   483.71     0  02:42           0        3.63       1.043
  YS02001757           JUNCTION      0.00   839.32     0  02:50           0        6.44       1.440
  YS02001895           JUNCTION      0.00   186.96     0  02:29           0        1.45       0.277
  YS02001625           JUNCTION      0.00   220.85     0  02:53           0       0.942       4.324
  YS02163301           JUNCTION      0.00   114.19     0  02:58           0       0.891       2.789
  YS02163601           JUNCTION      0.11   218.54     0  02:49      0.0031        1.98       1.552
  YS02164001           JUNCTION      0.00   218.81     0  02:50           0        1.96       1.034
  YS02001647           JUNCTION      0.00   322.35     0  02:49           0        2.85       0.986
  YSB1154              JUNCTION     19.60    19.60     0  02:09      0.0622      0.0634       2.330
  YSB6556              JUNCTION      0.00    19.47     0  02:11           0      0.0643       1.977
  YSB1174              JUNCTION     18.42    18.42     0  02:06      0.0452       0.046       2.870
  YSB1171              JUNCTION      0.00    35.93     0  02:10           0       0.116       5.778
  YS02006553           JUNCTION      0.00   340.60     0  02:37           0        3.12       0.470
  YS02006561           JUNCTION      0.00   537.38     0  02:37           0        4.41       0.005
  YS02006556           JUNCTION      0.00   343.16     0  02:37           0        3.12       0.341
  YS02006558           JUNCTION    157.89   509.25     0  02:37        1.35        4.44       0.114
  YS02001783           JUNCTION      0.00   499.20     0  02:37           0        4.41       0.038
  YS02001784           JUNCTION      1.06   512.33     0  02:37      0.0299        4.44       0.057
  YS02001786           JUNCTION      0.06   523.88     0  02:37     0.00159        4.44       0.058
  YS02001788           JUNCTION      0.07   567.62     0  02:36       0.002        4.44       0.034
  YS02001790           JUNCTION      0.15   615.58     0  02:36     0.00437        4.44       0.016
  YS02001791           JUNCTION      0.00   655.76     0  02:37           0        4.44       0.011
  YS02001793           JUNCTION      0.00   680.87     0  02:37           0        4.45      -0.040
  WSC                  OUTFALL       0.00   895.01     0  04:43           0        14.6       0.000
  JK-storage           STORAGE       0.00   743.17     0  02:40           0         4.6     -14.962
  CC-storage           STORAGE       0.00   841.97     0  02:50           0        5.74       1.038
  XR-storage           STORAGE     402.72   402.72     0  02:41           8         8.6      -0.001
  
  
  **********************
  Node Surcharge Summary
  **********************
  
  Surcharging occurs when water rises above the top of the highest conduit.
  ---------------------------------------------------------------------
                                               Max. Height   Min. Depth
                                   Hours       Above Crown    Below Rim
  Node                 Type      Surcharged         Meters       Meters
  ---------------------------------------------------------------------
  WS02006109           JUNCTION        1.32          0.173        1.647
  WS02006110           JUNCTION        0.13          0.023        1.827
  WS02006112           JUNCTION        0.19          0.040        1.640
  WS02006230           JUNCTION        0.07          0.050        1.520
  WS02006231           JUNCTION        0.33          0.168        1.362
  WS02006232           JUNCTION        1.04          0.373        1.107
  WS02006234           JUNCTION        0.61          0.363        0.877
  WS02006235           JUNCTION        0.70          0.462        0.828
  WS02006238           JUNCTION        0.85          0.480        0.950
  WS02006240           JUNCTION        0.60          0.430        0.960
  WS02006242           JUNCTION        0.79          0.491        0.329
  WS02006243           JUNCTION        0.53          0.420        0.350
  WS02006245           JUNCTION        0.50          0.400        0.450
  WS02006247           JUNCTION        0.54          0.420        0.340
  WS02006248           JUNCTION        0.42          0.359        0.021
  WS02006249           JUNCTION        0.49          0.390        0.000
  WS02006239           JUNCTION        0.62          0.442        0.848
  WS02006251           JUNCTION        0.14          0.171        1.009
  WS02006252           JUNCTION        1.23          0.343        0.757
  WS02006253           JUNCTION        0.14          0.204        2.276
  WS02006256           JUNCTION        6.22          2.050        0.000
  WS02006228           JUNCTION        1.23          0.209        1.991
  YS02001748           JUNCTION        4.35          0.220        0.970
  YS02001751           JUNCTION        4.79          0.509        0.691
  YS02001754           JUNCTION        5.19          0.743        0.407
  YS02001762           JUNCTION        5.52          1.012        0.138
  YS02001765           JUNCTION        5.49          0.958        0.142
  YS02001767           JUNCTION        5.47          0.916        0.114
  YS02001770           JUNCTION        5.45          0.868        0.052
  YS02001774           JUNCTION        5.51          0.964        0.086
  YS02001779           JUNCTION        5.07          0.680        0.000
  YS02001759           JUNCTION        5.54          1.046        0.164
  YS02001619           JUNCTION        4.72          0.479        0.131
  YS02001629           JUNCTION        4.73          0.470        0.000
  YS02001641           JUNCTION        5.50          0.938        0.162
  YS02001644           JUNCTION        5.50          0.920        0.000
  YS02001652           JUNCTION        5.30          0.977        0.153
  YS02001655           JUNCTION        4.83          0.935        0.265
  YS02001658           JUNCTION        4.42          0.864        0.436
  YS02001661           JUNCTION        0.02          0.738        0.652
  YS02001622           JUNCTION        4.77          0.498        0.122
  YS02001633           JUNCTION        5.49          0.928        0.132
  YS02001649           JUNCTION        5.53          1.050        0.000
  YS02001757           JUNCTION        5.59          1.153        0.057
  YS02001625           JUNCTION        5.41          0.780        0.000
  YS02163301           JUNCTION        5.47          0.884        0.146
  YS02163601           JUNCTION        5.52          0.995        0.085
  YS02164001           JUNCTION        5.50          0.925        0.175
  YS02001647           JUNCTION        5.36          0.796        0.104
  YS02001790           JUNCTION        0.46          0.459        0.698
  YS02001791           JUNCTION        0.51          0.630        1.290
  YS02001793           JUNCTION        0.79          0.789        1.811
  
  
  *********************
  Node Flooding Summary
  *********************
  
  Flooding refers to all water that overflows a node, whether it ponds or not.
  --------------------------------------------------------------------------
                                                             Total   Maximum
                                 Maximum   Time of Max       Flood    Ponded
                        Hours       Rate    Occurrence      Volume     Depth
  Node                 Flooded       LPS   days hr:min    10^6 ltr    Meters
  --------------------------------------------------------------------------
  WS02006249              0.13     80.05      0  04:30       0.014     0.000
  WS02006256              2.02    978.40      0  00:00       2.687     0.000
  YS02001779              0.61     14.20      0  04:10       0.007     0.000
  YS02001629              0.01      1.57      0  03:43       0.000     0.000
  YS02001644              2.58    415.92      0  04:52       1.770     0.000
  YS02001649              0.01     17.83      0  03:46       0.000     0.000
  YS02001625              0.03      8.78      0  05:52       0.000     0.000
  JK-storage              0.32    462.67      0  03:14       0.302     0.000
  
  
  **********************
  Storage Volume Summary
  **********************
  
  --------------------------------------------------------------------------------------------------
                         Average     Avg  Evap Exfil       Maximum     Max    Time of Max    Maximum
                          Volume    Pcnt  Pcnt  Pcnt        Volume    Pcnt     Occurrence    Outflow
  Storage Unit           1000 m3    Full  Loss  Loss       1000 m3    Full    days hr:min        LPS
  --------------------------------------------------------------------------------------------------
  JK-storage               0.104      36     0     0         0.291     100       0  02:25     983.00
  CC-storage               3.014      19     0     0         3.834      24       0  04:47     400.00
  XR-storage               0.362      39     0     0         0.791      85       0  06:25     380.00
  
  
  ***********************
  Outfall Loading Summary
  ***********************
  
  ---------------------------------------------------------------------------------------------------------------------------------
                         Flow       Avg       Max       Total         Total         Total         Total         Total         Total
                         Freq      Flow      Flow      Volume           COD            SS            TN            TP         NH4-N
  Outfall Node           Pcnt       LPS       LPS    10^6 ltr            kg            kg            kg            kg            kg
  ---------------------------------------------------------------------------------------------------------------------------------
  WSC                   99.98    564.47    895.01      14.603      1958.584      3200.694       158.746        19.384        97.991
  ---------------------------------------------------------------------------------------------------------------------------------
  System                99.98    564.47    895.01      14.603      1958.584      3200.694       158.746        19.384        97.991
  
  
  ********************
  Link Flow Summary
  ********************
  
  -----------------------------------------------------------------------------
                                 Maximum  Time of Max   Maximum    Max/    Max/
                                  |Flow|   Occurrence   |Veloc|    Full    Full
  Link                 Type          LPS  days hr:min     m/sec    Flow   Depth
  -----------------------------------------------------------------------------
  WS02003066WSF200     CONDUIT    502.12     0  04:39      2.82    0.08    0.22
  WS02006287WS02006284 CONDUIT    306.44     0  02:12      1.85    0.14    0.26
  WS02006284WS02006280 CONDUIT    306.57     0  02:12      2.09    0.13    0.24
  WS02006280WS02006229 CONDUIT    306.57     0  02:12      3.37    0.07    0.17
  WS02006229WS02006228 CONDUIT    552.01     0  04:31      1.10    1.83    1.00
  WS02006256WS02006235 CONDUIT    288.60     0  00:00      4.23    3.05    1.00
  WS02006253WS02006251 CONDUIT    107.46     0  05:51      0.57    0.32    1.00
  WS02006252WS02006251 CONDUIT    401.92     0  07:44      3.20    1.48    1.00
  WS02006251WS02006249 CONDUIT    413.39     0  07:44      1.13    1.19    1.00
  WS02006249WS02006248 CONDUIT    390.05     0  07:03      1.19    2.14    1.00
  WS02006248WS02006247 CONDUIT    385.71     0  07:03      1.16    0.84    1.00
  WS02006247WS02006245 CONDUIT    384.38     0  07:10      1.14    3.05    1.00
  WS02006245WS02006243 CONDUIT    384.02     0  07:10      1.19    1.14    1.00
  WS02006243WS02006242 CONDUIT    383.66     0  07:10      1.07    0.82    1.00
  WS02006242WS02006240 CONDUIT    383.36     0  07:10      1.01    1.52    1.00
  WS02006240WS02006239 CONDUIT    381.95     0  07:11      1.05    1.20    1.00
  WS02006239WS02006238 CONDUIT    381.49     0  07:11      0.99    1.22    1.00
  WS02006238WS02006235 CONDUIT    381.44     0  07:11      1.46    0.85    1.00
  WS02006235WS02006234 CONDUIT    521.76     0  04:31      1.36    5.50    1.00
  WS02006234WS02006232 CONDUIT    521.33     0  04:31      1.39    1.05    1.00
  WS02006232WS02006231 CONDUIT    520.55     0  04:31      1.35    1.09    1.00
  WS02006231WS02006230 CONDUIT    521.17     0  04:31      1.37    7.91    1.00
  WS02006230WS02006229 CONDUIT    532.59     0  04:31      1.38   11.85    1.00
  WS02006228WS02006109 CONDUIT    552.17     0  04:31      1.10    2.41    1.00
  WS02006116WS02004401 CONDUIT    522.99     0  04:33      0.78    0.72    0.82
  WS02006115WS02006116 CONDUIT    533.84     0  04:33      0.90    0.69    0.74
  WS02006113WS02006111 CONDUIT    576.20     0  04:32      2.49    0.69    0.47
  WS02006112WS02006115 CONDUIT    548.50     0  04:33      0.78    0.32    0.86
  WS02006111WS02006112 CONDUIT    554.88     0  04:32      1.54    0.26    0.68
  WS02006110WS02006113 CONDUIT    553.67     0  04:31      1.30    0.50    0.79
  WS02006109WS02006110 CONDUIT    553.27     0  04:31      1.10    1.06    1.00
  WS02004411WS02004412 CONDUIT    504.55     0  04:38      0.90    0.72    0.67
  WS02004401WS02004402 CONDUIT    520.50     0  04:35      0.74    0.62    0.85
  WS02004413WS02003067 CONDUIT    501.78     0  04:39      1.07    0.21    0.58
  WS02004412WS02004413 CONDUIT    502.53     0  04:38      0.79    0.34    0.76
  WS02004410WS02004411 CONDUIT    507.12     0  04:38      0.93    0.69    0.66
  WS02004409WS02004410 CONDUIT    511.56     0  04:37      0.99    0.66    0.65
  WS02004407WS02004409 CONDUIT    517.82     0  04:36      1.51    0.18    0.46
  WS02004406WS02004407 CONDUIT    518.29     0  04:36      1.02    0.23    0.62
  WS02004405WS02004406 CONDUIT    519.05     0  04:36      0.68    1.02    0.94
  WS02004404WS02004405 CONDUIT    518.68     0  04:36      0.67    5.08    0.95
  WS02004403WS02004404 CONDUIT    518.66     0  04:35      0.69    0.37    0.91
  WS02004402WS02004403 CONDUIT    519.48     0  04:35      0.72    0.75    0.87
  WS02004139WS02001211 CONDUIT    381.80     0  04:49      0.90    0.48    0.59
  WS02004138WS02004139 CONDUIT    396.19     0  00:00      3.65    0.08    0.44
  WS02003067WS02003066 CONDUIT    502.02     0  04:39      1.16    0.16    0.41
  WS02001213WS02003059 CONDUIT    394.78     0  04:47      0.88    0.65    0.76
  WS02001212WS02001213 CONDUIT    392.34     0  04:48      1.32    0.61    0.46
  WS02001211WS02001212 CONDUIT    390.80     0  04:48      0.78    0.30    0.64
  WS02003072WS02003073 CONDUIT    892.90     0  04:42      1.70    1.93    0.47
  WS02003069WS02003072 CONDUIT    892.81     0  04:42      1.60    0.43    0.50
  WS02003060WS02003069 CONDUIT    892.60     0  04:41      1.84    0.35    0.44
  WS02003059WS02003060 CONDUIT    397.97     0  03:10      0.95    0.26    0.65
  HS02004901HS02004770 CONDUIT     15.52     0  02:08      0.06    0.06    0.37
  HS02004876HS02004881 CONDUIT     54.11     0  02:11      0.79    0.58    0.10
  HS02004870HS02004876 CONDUIT     43.11     0  02:12      0.54    0.03    0.11
  HS02004842HS02004848 CONDUIT      7.39     0  02:21      0.04    0.00    0.29
  HS02004837HS02004842 CONDUIT      7.72     0  02:22      0.42    0.00    0.30
  HS02004830HS02004837 CONDUIT     32.08     0  02:11      0.50    0.03    0.09
  HS02004824HS02004830 CONDUIT     32.22     0  02:12      0.54    0.04    0.09
  HS02004817HS02004824 CONDUIT     54.91     0  02:14      0.18    0.02    0.44
  HS02004770HS02004777 CONDUIT     79.33     0  02:08      0.30    0.15    0.39
  HS02004799HS02004480 CONDUIT    195.77     0  02:10      0.73    0.25    0.39
  HS02004792HS02004799 CONDUIT    178.83     0  02:10      0.83    0.11    0.31
  HS02004788HS02004792 CONDUIT    103.89     0  02:10      0.96    0.07    0.15
  HS02004785HS02004788 CONDUIT     78.86     0  02:10      0.62    0.59    0.18
  HS02004777HS02004785 CONDUIT     78.82     0  02:09      0.35    0.10    0.32
  HS02004480HS02004478 CONDUIT    231.38     0  02:11      1.13    0.97    0.29
  HS02004479HS02004480 CONDUIT     36.45     0  02:12      0.17    0.04    0.37
  HS02004862HS02004870 CONDUIT     31.85     0  02:12      0.56    0.03    0.08
  HS02004848HS02004852 CONDUIT     13.61     0  02:11      0.38    0.02    0.05
  HS02004856HS02004862 CONDUIT     21.93     0  02:12      0.41    0.02    0.08
  HS02004852HS02004856 CONDUIT     13.54     0  02:13      0.18    0.02    0.11
  HS02004802HS02004478 CONDUIT     77.41     0  02:14      0.37    0.07    0.31
  HS02004478WS02006287 CONDUIT    306.39     0  02:12      1.55    0.09    0.22
  HS02004817HS02004807 CONDUIT     56.37     0  02:15      0.14    0.03    0.57
  HS02004807HS02004802 CONDUIT     76.74     0  02:14      0.31    0.15    0.36
  YS02001759YS02001757 CONDUIT    323.68     0  02:49      0.41    0.23    1.00
  YS02001762YS02001759 CONDUIT    184.56     0  02:49      0.23    0.21    1.00
  YS02001765YS02001762 CONDUIT    180.72     0  02:47      0.24    0.17    1.00
  YS02001770YS02001767 CONDUIT    172.94     0  02:48      0.30    0.69    1.00
  YS02001774YS02001770 CONDUIT     49.74     0  02:07      0.13    0.03    1.00
  YS02001779YS02001774 CONDUIT     39.03     0  02:22      0.07    0.02    1.00
  YS02001649YS02001757 CONDUIT    484.15     0  02:42      0.62    0.29    1.00
  YS02001767YS02001765 CONDUIT    177.05     0  02:47      0.27    0.22    1.00
  YS02006561YS02001783 CONDUIT    499.20     0  02:37      1.99    0.26    0.62
  YS02001783YS02001784 CONDUIT    511.27     0  02:37      1.43    0.70    0.93
  YS02001784YS02001785 CONDUIT    523.82     0  02:37      1.56    1.22    0.97
  YS02001788YS02001790 CONDUIT    615.43     0  02:36      2.09    0.45    1.00
  YS02001790YS02001791 CONDUIT    655.76     0  02:37      2.48    0.71    1.00
  YS02001791YS02001793 CONDUIT    680.87     0  02:37      5.04    0.29    1.00
  YS02001910YS02001907 CONDUIT    153.64     0  02:50      0.49    0.09    0.86
  YS02001786YS02001788 CONDUIT    567.54     0  02:36      2.03    1.09    0.96
  YS02001915YS02001910 CONDUIT    153.10     0  02:50      0.45    0.08    0.65
  YS02001918YS02001915 CONDUIT     54.84     0  03:03      0.44    0.03    0.37
  YS02001923YS02001920 CONDUIT     47.73     0  03:01      0.53    0.02    0.18
  YS02001926YS02001923 CONDUIT     47.69     0  03:01      0.58    0.07    0.16
  YS02001929YS02001926 CONDUIT     47.66     0  03:01      0.62    0.02    0.15
  YS02001920YS02001918 CONDUIT     51.61     0  03:03      0.53    0.05    0.23
  YS02001629YS02163301 CONDUIT    114.19     0  02:58      0.15    0.14    1.00
  YS02001619YS02001622 CONDUIT    157.23     0  02:54      0.71    0.23    1.00
  YS02001622YS02001625 CONDUIT    220.85     0  02:53      0.29    0.12    1.00
  YS02001625YS02001629 CONDUIT    220.27     0  02:53      0.29    0.10    1.00
  YS02163301YS02001633 CONDUIT    112.33     0  02:48      0.14    0.11    1.00
  YS02163601YS02164001 CONDUIT    218.81     0  02:50      0.28    0.19    1.00
  YS02164001YS02001641 CONDUIT    217.70     0  02:50      0.28    0.30    1.00
  YS02001641YS02001644 CONDUIT    217.11     0  02:49      0.28    0.70    1.00
  YS02001647YS02001649 CONDUIT    324.07     0  02:49      0.41    0.17    1.00
  YS02006553YS02006556 CONDUIT    343.16     0  02:37      0.45    0.29    0.94
  YS02006556YS02006558 CONDUIT    352.40     0  02:37      0.46    0.28    0.97
  YSB6556YSB1171       CONDUIT     19.80     0  02:13      0.08    0.02    0.64
  YS02001907YS02006553 CONDUIT    340.60     0  02:37      0.38    0.40    1.00
  YS02006558YS02006561 CONDUIT    537.38     0  02:37      2.81    1.19    0.65
  YS02001633YS02163601 CONDUIT    218.43     0  02:49      0.28    0.23    1.00
  YS02001644YS02001647 CONDUIT    322.35     0  02:49      0.41    0.19    1.00
  YS02001745YS02001748 CONDUIT    280.42     0  02:51      1.55    0.11    0.93
  YS02001748YS02001751 CONDUIT    375.80     0  02:50      1.19    0.19    1.00
  YS02001751YS02001754 CONDUIT    192.92     0  02:53      0.93    0.09    1.00
  YS02001754YS02001757 CONDUIT    194.96     0  02:52      0.33    0.08    1.00
  YS02001882YS02001884 CONDUIT      5.56     0  02:04      0.07    0.01    0.59
  YS02001884YS02001887 CONDUIT     15.54     0  02:04      0.05    0.02    0.68
  YS02001890YS02001895 CONDUIT    186.96     0  02:29      0.35    0.09    0.65
  YS02001895YS02001898 CONDUIT    187.04     0  02:38      0.48    0.32    0.52
  YS02001898YS02001901 CONDUIT    188.12     0  02:38      0.39    0.12    0.60
  YS02001901YS02001904 CONDUIT    189.05     0  02:38      0.35    0.29    0.65
  YS02001904YS02001907 CONDUIT    189.68     0  02:37      0.28    0.07    0.81
  YS02001887YS02001890 CONDUIT    187.67     0  02:31      0.31    0.32    0.74
  YS02001652YS02001649 CONDUIT    183.77     0  02:42      0.36    0.09    1.00
  YS02001655YS02001652 CONDUIT    189.88     0  02:48      0.97    0.09    1.00
  YS02001658YS02001655 CONDUIT    352.38     0  02:48      1.38    0.15    1.00
  YS02001661YS02001658 CONDUIT    347.14     0  02:56      1.62    0.14    1.00
  YS02001664YS02001661 CONDUIT    441.81     0  03:42      1.36    0.14    0.71
  YSB1154YSB6556       CONDUIT     19.47     0  02:11      0.19    0.04    0.53
  YSB1174YSB1171       CONDUIT     17.26     0  02:07      0.07    0.03    0.65
  YSB1171HS02004479    CONDUIT     36.10     0  02:11      0.54    0.02    0.51
  HS02004881HS02006253 CONDUIT     60.43     0  02:11      1.97    0.01    0.50
  YS02001793JiankangQianchi CONDUIT    743.17     0  02:40     15.18    0.06    1.00
  YS02001757CaochengTiaoxuchi CONDUIT    841.97     0  02:50      1.64    0.37    1.00
  WSF200WS02003060     CONDUIT    502.60     0  04:39      2.16    0.11    0.33
  1                    CONDUIT    895.01     0  04:43      3.23    0.31    0.38
  CC-Pump-1            PUMP       200.00     0  04:20              1.00
  CC-Pump-2            PUMP       200.00     0  07:00              1.00
  JK-Pump-1            PUMP       300.00     0  00:00              1.00
  JK-Pump-2            PUMP       683.00     0  00:00              1.00
  XR-Pump-1            PUMP        95.00     0  00:00              1.00
  XR-Pump-2            PUMP        95.00     0  00:00              1.00
  XR-Pump-3            PUMP        95.00     0  00:00              1.00
  XR-Pump-4            PUMP        95.00     0  00:00              1.00
  
  
  ***************************
  Flow Classification Summary
  ***************************
  
  -------------------------------------------------------------------------------------
                      Adjusted    ---------- Fraction of Time in Flow Class ---------- 
                       /Actual         Up    Down  Sub   Sup   Up    Down  Norm  Inlet 
  Conduit               Length    Dry  Dry   Dry   Crit  Crit  Crit  Crit  Ltd   Ctrl  
  -------------------------------------------------------------------------------------
  WS02003066WSF200        1.00   0.02  0.08  0.00  0.00  0.90  0.00  0.00  0.67  0.00
  WS02006287WS02006284    1.00   0.03  0.02  0.00  0.76  0.18  0.00  0.00  0.76  0.00
  WS02006284WS02006280    1.00   0.04  0.00  0.00  0.00  0.00  0.00  0.96  0.00  0.00
  WS02006280WS02006229    1.00   0.04  0.00  0.00  0.00  0.00  0.00  0.96  0.00  0.00
  WS02006229WS02006228    1.00   0.00  0.00  0.00  1.00  0.00  0.00  0.00  0.00  0.00
  WS02006256WS02006235    1.00   0.00  0.00  0.00  1.00  0.00  0.00  0.00  0.00  0.00
  WS02006253WS02006251    1.00   0.02  0.02  0.00  0.96  0.00  0.01  0.00  0.00  0.00
  WS02006252WS02006251    1.00   0.22  0.00  0.00  0.02  0.00  0.76  0.00  0.00  0.00
  WS02006251WS02006249    1.00   0.00  0.00  0.00  1.00  0.00  0.00  0.00  0.41  0.00
  WS02006249WS02006248    1.00   0.00  0.01  0.00  0.82  0.00  0.17  0.00  0.00  0.00
  WS02006248WS02006247    1.00   0.01  0.00  0.00  0.98  0.00  0.00  0.02  0.26  0.00
  WS02006247WS02006245    1.00   0.01  0.00  0.00  0.95  0.00  0.00  0.04  0.00  0.00
  WS02006245WS02006243    1.00   0.00  0.00  0.00  0.90  0.00  0.00  0.10  0.02  0.00
  WS02006243WS02006242    1.00   0.00  0.00  0.00  0.99  0.00  0.00  0.00  0.38  0.00
  WS02006242WS02006240    1.00   0.00  0.00  0.00  0.99  0.00  0.01  0.00  0.00  0.00
  WS02006240WS02006239    1.00   0.00  0.00  0.00  0.89  0.00  0.00  0.11  0.02  0.00
  WS02006239WS02006238    1.00   0.00  0.00  0.00  1.00  0.00  0.00  0.00  0.21  0.00
  WS02006238WS02006235    1.00   0.00  0.00  0.00  1.00  0.00  0.00  0.00  0.00  0.00
  WS02006235WS02006234    1.00   0.00  0.00  0.00  0.92  0.00  0.08  0.00  0.00  0.00
  WS02006234WS02006232    1.00   0.00  0.00  0.00  1.00  0.00  0.00  0.00  0.16  0.00
  WS02006232WS02006231    1.00   0.00  0.00  0.00  1.00  0.00  0.00  0.00  0.00  0.00
  WS02006231WS02006230    1.00   0.00  0.00  0.00  0.46  0.00  0.54  0.00  0.00  0.00
  WS02006230WS02006229    1.00   0.00  0.00  0.00  1.00  0.00  0.00  0.00  0.01  0.00
  WS02006228WS02006109    1.00   0.00  0.00  0.00  1.00  0.00  0.00  0.00  0.01  0.00
  WS02006116WS02004401    1.00   0.01  0.00  0.00  0.99  0.00  0.00  0.00  0.01  0.00
  WS02006115WS02006116    1.00   0.01  0.00  0.00  0.97  0.00  0.00  0.02  0.01  0.00
  WS02006113WS02006111    1.00   0.01  0.00  0.00  0.00  0.99  0.00  0.00  0.20  0.00
  WS02006112WS02006115    1.00   0.01  0.00  0.00  0.99  0.00  0.00  0.00  0.00  0.00
  WS02006111WS02006112    1.00   0.01  0.00  0.00  0.99  0.00  0.00  0.00  0.98  0.00
  WS02006110WS02006113    1.00   0.00  0.00  0.00  0.99  0.00  0.00  0.00  0.00  0.00
  WS02006109WS02006110    1.00   0.00  0.00  0.00  0.99  0.00  0.00  0.00  0.00  0.00
  WS02004411WS02004412    1.00   0.07  0.00  0.00  0.93  0.00  0.00  0.00  0.00  0.00
  WS02004401WS02004402    1.00   0.01  0.00  0.00  0.99  0.00  0.00  0.00  0.01  0.00
  WS02004413WS02003067    1.00   0.07  0.02  0.00  0.00  0.00  0.91  0.00  0.00  0.00
  WS02004412WS02004413    1.00   0.07  0.00  0.00  0.93  0.00  0.00  0.00  0.01  0.00
  WS02004410WS02004411    1.00   0.06  0.00  0.00  0.94  0.00  0.00  0.00  0.00  0.00
  WS02004409WS02004410    1.00   0.06  0.00  0.00  0.94  0.00  0.00  0.00  0.00  0.00
  WS02004407WS02004409    1.00   0.06  0.00  0.00  0.93  0.00  0.00  0.00  0.78  0.00
  WS02004406WS02004407    1.00   0.00  0.06  0.00  0.94  0.00  0.00  0.00  0.00  0.00
  WS02004405WS02004406    1.00   0.00  0.00  0.00  1.00  0.00  0.00  0.00  0.02  0.00
  WS02004404WS02004405    1.00   0.00  0.00  0.00  1.00  0.00  0.00  0.00  0.00  0.00
  WS02004403WS02004404    1.00   0.00  0.01  0.00  0.99  0.00  0.00  0.00  0.02  0.00
  WS02004402WS02004403    1.00   0.01  0.00  0.00  0.99  0.00  0.00  0.00  0.00  0.00
  WS02004139WS02001211    1.00   0.00  0.00  0.00  1.00  0.00  0.00  0.00  0.00  0.00
  WS02004138WS02004139    1.00   0.00  0.00  0.00  0.99  0.00  0.00  0.00  1.00  0.00
  WS02003067WS02003066    1.00   0.09  0.01  0.00  0.91  0.00  0.00  0.00  0.00  0.00
  WS02001213WS02003059    1.00   0.00  0.00  0.00  1.00  0.00  0.00  0.00  0.00  0.00
  WS02001212WS02001213    1.00   0.00  0.00  0.00  0.79  0.00  0.21  0.00  0.00  0.00
  WS02001211WS02001212    1.00   0.00  0.00  0.00  1.00  0.00  0.00  0.00  0.00  0.00
  WS02003072WS02003073    1.00   0.00  0.00  0.00  0.00  0.00  0.00  1.00  0.00  0.00
  WS02003069WS02003072    1.00   0.00  0.00  0.00  1.00  0.00  0.00  0.00  0.22  0.00
  WS02003060WS02003069    1.00   0.00  0.00  0.00  0.96  0.04  0.00  0.00  0.17  0.00
  WS02003059WS02003060    1.00   0.00  0.00  0.00  1.00  0.00  0.00  0.00  0.00  0.00
  HS02004901HS02004770    1.00   0.04  0.00  0.00  0.96  0.00  0.00  0.00  0.01  0.00
  HS02004876HS02004881    1.00   0.01  0.00  0.00  0.99  0.00  0.00  0.00  0.00  0.00
  HS02004870HS02004876    1.00   0.00  0.00  0.00  0.99  0.00  0.00  0.00  0.95  0.00
  HS02004842HS02004848    1.00   0.00  0.04  0.00  0.96  0.00  0.00  0.00  0.65  0.00
  HS02004837HS02004842    1.00   0.00  0.00  0.00  1.00  0.00  0.00  0.00  0.11  0.00
  HS02004830HS02004837    1.00   0.00  0.00  0.00  1.00  0.00  0.00  0.00  0.99  0.00
  HS02004824HS02004830    1.00   0.00  0.00  0.00  1.00  0.00  0.00  0.00  0.00  0.00
  HS02004817HS02004824    1.00   0.00  0.00  0.00  1.00  0.00  0.00  0.00  1.00  0.00
  HS02004770HS02004777    1.00   0.00  0.04  0.00  0.96  0.00  0.00  0.00  0.06  0.00
  HS02004799HS02004480    1.00   0.00  0.01  0.00  0.94  0.00  0.05  0.00  0.00  0.00
  HS02004792HS02004799    1.00   0.00  0.00  0.00  1.00  0.00  0.00  0.00  0.98  0.00
  HS02004788HS02004792    1.00   0.00  0.00  0.00  1.00  0.00  0.00  0.00  0.98  0.00
  HS02004785HS02004788    1.00   0.00  0.00  0.00  1.00  0.00  0.00  0.00  0.00  0.00
  HS02004777HS02004785    1.00   0.00  0.00  0.00  1.00  0.00  0.00  0.00  0.17  0.00
  HS02004480HS02004478    1.00   0.05  0.00  0.00  0.80  0.00  0.00  0.15  0.00  0.00
  HS02004479HS02004480    1.00   0.01  0.00  0.00  0.99  0.00  0.00  0.00  0.15  0.00
  HS02004862HS02004870    1.00   0.00  0.00  0.00  1.00  0.00  0.00  0.00  0.05  0.00
  HS02004848HS02004852    1.00   0.04  0.00  0.00  0.96  0.00  0.00  0.00  0.72  0.00
  HS02004856HS02004862    1.00   0.00  0.07  0.00  0.93  0.00  0.00  0.00  0.77  0.00
  HS02004852HS02004856    1.00   0.04  0.01  0.00  0.95  0.00  0.00  0.00  0.83  0.00
  HS02004802HS02004478    1.00   0.04  0.01  0.00  0.95  0.00  0.00  0.00  0.01  0.00
  HS02004478WS02006287    1.00   0.06  0.00  0.00  0.87  0.07  0.00  0.00  0.74  0.00
  HS02004817HS02004807    1.00   0.00  0.04  0.00  0.96  0.00  0.00  0.00  0.00  0.00
  HS02004807HS02004802    1.00   0.04  0.00  0.00  0.95  0.00  0.00  0.00  0.01  0.00
  YS02001759YS02001757    1.00   0.00  0.00  0.00  1.00  0.00  0.00  0.00  0.18  0.00
  YS02001762YS02001759    1.00   0.00  0.00  0.00  1.00  0.00  0.00  0.00  0.04  0.00
  YS02001765YS02001762    1.00   0.00  0.00  0.00  1.00  0.00  0.00  0.00  0.20  0.00
  YS02001770YS02001767    1.00   0.00  0.00  0.00  1.00  0.00  0.00  0.00  0.00  0.00
  YS02001774YS02001770    1.00   0.00  0.05  0.00  0.95  0.00  0.00  0.00  0.05  0.00
  YS02001779YS02001774    1.00   0.00  0.00  0.00  1.00  0.00  0.00  0.00  0.24  0.00
  YS02001649YS02001757    1.00   0.00  0.00  0.00  1.00  0.00  0.00  0.00  0.18  0.00
  YS02001767YS02001765    1.00   0.00  0.00  0.00  1.00  0.00  0.00  0.00  0.01  0.00
  YS02006561YS02001783    1.00   0.07  0.00  0.00  0.04  0.89  0.00  0.00  0.65  0.00
  YS02001783YS02001784    1.00   0.00  0.08  0.00  0.92  0.00  0.00  0.00  0.00  0.00
  YS02001784YS02001785    1.00   0.00  0.00  0.00  1.00  0.00  0.00  0.00  0.23  0.00
  YS02001788YS02001790    1.00   0.00  0.00  0.00  0.14  0.86  0.00  0.00  0.68  0.00
  YS02001790YS02001791    1.00   0.00  0.00  0.00  0.10  0.90  0.00  0.00  0.56  0.00
  YS02001791YS02001793    1.00   0.00  0.00  0.00  0.20  0.80  0.00  0.00  0.08  0.00
  YS02001910YS02001907    1.00   0.00  0.00  0.00  0.99  0.00  0.00  0.01  0.13  0.00
  YS02001786YS02001788    1.00   0.00  0.00  0.00  0.12  0.88  0.00  0.00  0.00  0.00
  YS02001915YS02001910    1.00   0.00  0.00  0.00  1.00  0.00  0.00  0.00  0.22  0.00
  YS02001918YS02001915    1.00   0.00  0.00  0.00  0.99  0.01  0.00  0.00  0.68  0.00
  YS02001923YS02001920    1.00   0.00  0.00  0.00  1.00  0.00  0.00  0.00  1.00  0.00
  YS02001926YS02001923    1.00   0.00  0.02  0.00  0.00  0.00  0.98  0.00  0.00  0.00
  YS02001929YS02001926    1.00   0.00  0.04  0.00  0.96  0.00  0.00  0.00  0.87  0.00
  YS02001920YS02001918    1.00   0.00  0.00  0.00  1.00  0.00  0.00  0.00  0.00  0.00
  YS02001629YS02163301    1.00   0.06  0.01  0.00  0.93  0.00  0.00  0.00  0.00  0.00
  YS02001619YS02001622    1.00   0.04  0.00  0.00  0.96  0.00  0.00  0.00  0.00  0.00
  YS02001622YS02001625    1.00   0.04  0.00  0.00  0.96  0.00  0.00  0.00  0.11  0.00
  YS02001625YS02001629    1.00   0.04  0.04  0.00  0.90  0.00  0.02  0.00  0.00  0.00
  YS02163301YS02001633    1.00   0.00  0.06  0.00  0.94  0.00  0.00  0.00  0.00  0.00
  YS02163601YS02164001    1.00   0.00  0.03  0.00  0.97  0.00  0.00  0.00  0.00  0.00
  YS02164001YS02001641    1.00   0.00  0.02  0.00  0.97  0.00  0.00  0.00  0.07  0.00
  YS02001641YS02001644    1.00   0.00  0.00  0.00  1.00  0.00  0.00  0.00  0.00  0.00
  YS02001647YS02001649    1.00   0.00  0.07  0.00  0.93  0.00  0.00  0.00  0.01  0.00
  YS02006553YS02006556    1.00   0.01  0.00  0.00  0.99  0.00  0.00  0.00  0.03  0.00
  YS02006556YS02006558    1.00   0.00  0.00  0.00  1.00  0.00  0.00  0.00  0.00  0.00
  YSB6556YSB1171          1.00   0.01  0.02  0.00  0.96  0.00  0.00  0.00  0.00  0.00
  YS02001907YS02006553    1.00   0.00  0.01  0.00  0.99  0.00  0.00  0.00  0.00  0.00
  YS02006558YS02006561    1.00   0.07  0.00  0.00  0.00  0.92  0.00  0.00  0.66  0.00
  YS02001633YS02163601    1.00   0.00  0.00  0.00  1.00  0.00  0.00  0.00  0.19  0.00
  YS02001644YS02001647    1.00   0.00  0.07  0.00  0.93  0.00  0.00  0.00  0.00  0.00
  YS02001745YS02001748    1.00   0.00  0.00  0.00  0.89  0.00  0.00  0.11  0.05  0.00
  YS02001748YS02001751    1.00   0.00  0.00  0.00  0.96  0.04  0.00  0.00  0.19  0.00
  YS02001751YS02001754    1.00   0.00  0.00  0.00  0.91  0.00  0.00  0.08  0.02  0.00
  YS02001754YS02001757    1.00   0.00  0.00  0.00  1.00  0.00  0.00  0.00  0.24  0.00
  YS02001882YS02001884    1.00   0.06  0.00  0.00  0.94  0.00  0.00  0.00  0.00  0.00
  YS02001884YS02001887    1.00   0.02  0.02  0.00  0.96  0.00  0.00  0.00  0.00  0.00
  YS02001890YS02001895    1.00   0.00  0.06  0.00  0.94  0.00  0.00  0.00  0.00  0.00
  YS02001895YS02001898    1.00   0.06  0.00  0.00  0.92  0.00  0.01  0.00  0.00  0.00
  YS02001898YS02001901    1.00   0.06  0.00  0.00  0.93  0.00  0.00  0.00  0.02  0.00
  YS02001901YS02001904    1.00   0.06  0.00  0.00  0.94  0.00  0.00  0.00  0.00  0.00
  YS02001904YS02001907    1.00   0.00  0.06  0.00  0.94  0.00  0.00  0.00  0.00  0.00
  YS02001887YS02001890    1.00   0.00  0.00  0.00  0.99  0.00  0.01  0.00  0.00  0.00
  YS02001652YS02001649    1.00   0.00  0.00  0.00  1.00  0.00  0.00  0.00  0.22  0.00
  YS02001655YS02001652    1.00   0.00  0.00  0.00  0.92  0.00  0.00  0.08  0.02  0.00
  YS02001658YS02001655    1.00   0.00  0.05  0.00  0.91  0.04  0.00  0.00  0.08  0.00
  YS02001661YS02001658    1.00   0.05  0.00  0.00  0.89  0.06  0.00  0.00  0.05  0.00
  YS02001664YS02001661    1.00   0.04  0.00  0.00  0.89  0.07  0.00  0.00  0.28  0.00
  YSB1154YSB6556          1.00   0.04  0.00  0.00  0.96  0.00  0.00  0.00  0.02  0.00
  YSB1174YSB1171          1.00   0.02  0.01  0.00  0.97  0.00  0.00  0.00  0.00  0.00
  YSB1171HS02004479       1.00   0.01  0.00  0.00  0.98  0.00  0.00  0.00  0.13  0.00
  HS02004881HS02006253    1.00   0.02  0.00  0.00  0.50  0.01  0.00  0.47  0.28  0.00
  YS02001793JiankangQianchi    1.00   0.00  0.00  0.00  0.68  0.32  0.00  0.00  0.55  0.00
  YS02001757CaochengTiaoxuchi    1.00   0.00  0.09  0.00  0.91  0.00  0.00  0.00  0.00  0.00
  WSF200WS02003060        1.00   0.00  0.02  0.00  0.85  0.13  0.00  0.00  0.64  0.00
  1                       1.00   0.00  0.00  0.00  0.00  1.00  0.00  0.00  0.51  0.00
  
  
  *************************
  Conduit Surcharge Summary
  *************************
  
  ----------------------------------------------------------------------------
                                                           Hours        Hours 
                         --------- Hours Full --------   Above Full   Capacity
  Conduit                Both Ends  Upstream  Dnstream   Normal Flow   Limited
  ----------------------------------------------------------------------------
  WS02006229WS02006228        1.23      1.40      1.23      2.89         1.23
  WS02006256WS02006235        4.70      4.70      6.21      3.01         0.01
  WS02006253WS02006251        0.45      0.45      0.51      0.01         0.02
  WS02006252WS02006251        0.67      0.67      1.23      1.08         0.01
  WS02006251WS02006249        0.46      0.47      0.49      0.51         0.22
  WS02006249WS02006248        0.42      0.42      0.49      1.66         0.01
  WS02006248WS02006247        0.46      0.46      0.54      0.01         0.01
  WS02006247WS02006245        0.50      0.57      0.50      2.22         0.49
  WS02006245WS02006243        0.50      0.53      0.53      0.45         0.21
  WS02006243WS02006242        0.59      0.59      0.79      0.01         0.01
  WS02006242WS02006240        0.60      0.60      0.91      1.06         0.01
  WS02006240WS02006239        0.58      0.64      0.62      0.56         0.19
  WS02006239WS02006238        0.76      0.82      0.85      0.59         0.29
  WS02006238WS02006235        0.79      0.79      1.01      0.01         0.01
  WS02006235WS02006234        0.61      0.61      0.70      4.45         0.01
  WS02006234WS02006232        0.65      0.65      1.04      0.24         0.25
  WS02006232WS02006231        0.33      0.33      1.04      0.31         0.01
  WS02006231WS02006230        0.07      0.07      0.36      4.74         0.01
  WS02006230WS02006229        2.14      2.46      2.14      5.17         2.14
  WS02006228WS02006109        1.31      1.77      1.31      3.79         1.31
  WS02006112WS02006115        0.01      0.01      0.19      0.01         0.01
  WS02006111WS02006112        0.01      0.01      2.99      0.01         0.01
  WS02006110WS02006113        0.01      0.01      1.57      0.01         0.01
  WS02006109WS02006110        0.13      0.13      1.77      0.14         0.01
  WS02004405WS02004406        0.01      0.01      0.01      0.09         0.01
  WS02004404WS02004405        0.01      0.01      0.01      5.30         0.01
  WS02003072WS02003073        0.01      0.01      0.01      4.69         0.01
  YS02001759YS02001757        5.54      5.54      5.59      0.01         0.01
  YS02001762YS02001759        5.52      5.52      5.54      0.01         0.01
  YS02001765YS02001762        5.49      5.49      5.52      0.01         0.01
  YS02001770YS02001767        5.47      5.47      5.47      0.01         0.54
  YS02001774YS02001770        5.45      5.45      5.51      0.01         0.01
  YS02001779YS02001774        5.07      5.07      5.51      0.01         0.01
  YS02001649YS02001757        5.53      5.53      5.59      0.01         0.01
  YS02001767YS02001765        5.47      5.47      5.49      0.01         0.01
  YS02001784YS02001785        0.01      0.01      0.01      0.77         0.01
  YS02001788YS02001790        0.01      0.01      0.46      0.01         0.01
  YS02001790YS02001791        0.46      0.46      0.51      0.01         0.01
  YS02001791YS02001793        0.51      0.51      0.94      0.01         0.01
  YS02001786YS02001788        0.01      0.01      0.01      0.06         0.01
  YS02001629YS02163301        5.46      5.46      5.47      0.01         0.01
  YS02001619YS02001622        4.72      4.72      4.76      0.01         0.01
  YS02001622YS02001625        4.76      4.76      5.41      0.01         0.01
  YS02001625YS02001629        4.73      4.73      5.41      0.01         0.01
  YS02163301YS02001633        5.47      5.47      5.50      0.01         0.01
  YS02163601YS02164001        5.50      5.50      5.52      0.01         0.01
  YS02164001YS02001641        5.50      5.50      5.50      0.01         0.01
  YS02001641YS02001644        5.50      5.50      5.50      0.01         0.59
  YS02001647YS02001649        5.36      5.36      5.53      0.01         0.01
  YS02001907YS02006553        0.84      0.84      1.06      0.01         0.01
  YS02006558YS02006561        0.01      0.01      0.01      0.49         0.01
  YS02001633YS02163601        5.49      5.49      5.52      0.01         0.01
  YS02001644YS02001647        5.36      5.36      5.50      0.01         0.01
  YS02001745YS02001748        0.01      0.01      4.35      0.01         0.01
  YS02001748YS02001751        4.52      4.52      4.78      0.01         0.01
  YS02001751YS02001754        4.78      4.78      5.19      0.01         0.01
  YS02001754YS02001757        5.34      5.34      5.59      0.01         0.01
  YS02001652YS02001649        5.39      5.39      5.53      0.01         0.01
  YS02001655YS02001652        4.83      4.83      5.30      0.01         0.01
  YS02001658YS02001655        4.42      4.42      4.83      0.01         0.01
  YS02001661YS02001658        0.02      0.02      4.42      0.01         0.01
  YS02001664YS02001661        0.01      0.01      0.26      0.01         0.01
  HS02004881HS02006253        0.01      0.01      0.14      0.01         0.01
  YS02001793JiankangQianchi        0.79      0.79      3.50      0.01         0.01
  YS02001757CaochengTiaoxuchi        4.54      4.54      5.59      0.01         0.01
  
  
  ***************
  Pumping Summary
  ***************
  
  ---------------------------------------------------------------------------------------------------------
                                                  Min       Avg       Max     Total     Power    % Time Off
                        Percent   Number of      Flow      Flow      Flow    Volume     Usage    Pump Curve
  Pump                 Utilized   Start-Ups       LPS       LPS       LPS  10^6 ltr     Kw-hr    Low   High
  ---------------------------------------------------------------------------------------------------------
  CC-Pump-1               42.55           3      0.00    132.08    200.00     1.500      1.58    0.0    0.0
  CC-Pump-2               27.66           5      0.00    109.13    200.00     0.900      1.13    0.0    0.0
  JK-Pump-1               44.67           6      0.00    163.22    300.00     1.957     34.01    0.0    0.0
  JK-Pump-2               42.55           7      0.00    271.99    683.00     3.142     54.26    0.0   95.7
  XR-Pump-1               93.62           2      0.00     90.26     95.00     2.337     42.42    0.0    0.0
  XR-Pump-2               87.24           4      0.00     89.80     95.00     2.109     38.21    0.0    0.0
  XR-Pump-3               82.97           5      0.00     89.00     95.00     1.995     35.50    0.0    0.0
  XR-Pump-4               82.97           5      0.00     89.00     95.00     1.995     35.50    0.0    0.0
  
  
  ***************************
  Link Pollutant Load Summary
  ***************************
  
  ------------------------------------------------------------------------------------------
                                 COD            SS            TN            TP         NH4-N
  Link                            kg            kg            kg            kg            kg
  ------------------------------------------------------------------------------------------
  WS02003066WSF200           391.841       683.259        13.497         1.326         7.505
  WS02006287WS02006284       140.609       248.924         6.895         0.769         4.052
  WS02006284WS02006280       141.031       249.606         6.935         0.774         4.076
  WS02006280WS02006229       141.016       249.576         6.934         0.774         4.076
  WS02006229WS02006228       404.741       703.980        13.541         1.310         7.483
  WS02006256WS02006235        94.724       161.041         2.669         0.235         1.427
  WS02006253WS02006251        27.507        50.358         0.723         0.060         0.375
  WS02006252WS02006251       164.627       282.309         3.776         0.285         1.889
  WS02006251WS02006249       181.835       315.079         4.266         0.328         2.149
  WS02006249WS02006248       179.479       311.047         4.207         0.323         2.119
  WS02006248WS02006247       179.115       310.463         4.198         0.323         2.114
  WS02006247WS02006245       178.300       309.082         4.178         0.321         2.104
  WS02006245WS02006243       177.344       307.523         4.148         0.318         2.088
  WS02006243WS02006242       177.466       307.835         4.152         0.319         2.090
  WS02006242WS02006240       178.005       308.858         4.161         0.319         2.094
  WS02006240WS02006239       178.768       310.261         4.173         0.320         2.100
  WS02006239WS02006238       180.680       313.592         4.229         0.325         2.130
  WS02006238WS02006235       181.600       315.015         4.261         0.328         2.149
  WS02006235WS02006234       267.846       461.376         6.715         0.545         3.463
  WS02006234WS02006232       267.372       460.561         6.710         0.545         3.462
  WS02006232WS02006231       266.545       459.149         6.686         0.543         3.449
  WS02006231WS02006230       265.457       457.325         6.663         0.542         3.437
  WS02006230WS02006229       265.650       457.792         6.678         0.544         3.447
  WS02006228WS02006109       404.156       702.989        13.531         1.310         7.479
  WS02006116WS02004401       409.301       711.717        14.178         1.395         7.890
  WS02006115WS02006116       410.676       713.955        14.224         1.399         7.915
  WS02006113WS02006111       409.976       712.096        14.255         1.403         7.938
  WS02006112WS02006115       412.413       716.841        14.295         1.406         7.956
  WS02006111WS02006112       409.491       711.281        14.244         1.402         7.932
  WS02006110WS02006113       410.860       713.577        14.291         1.407         7.958
  WS02006109WS02006110       412.360       716.088        14.354         1.413         7.994
  WS02004411WS02004412       396.997       691.855        13.719         1.350         7.633
  WS02004401WS02004402       407.656       709.030        14.107         1.387         7.849
  WS02004413WS02003067       392.905       685.031        13.531         1.330         7.524
  WS02004412WS02004413       395.123       688.742        13.647         1.342         7.592
  WS02004410WS02004411       398.565       694.432        13.780         1.356         7.668
  WS02004409WS02004410       400.148       697.022        13.849         1.363         7.707
  WS02004407WS02004409       401.432       699.082        13.900         1.368         7.736
  WS02004406WS02004407       401.748       699.542        13.910         1.369         7.741
  WS02004405WS02004406       404.036       703.241        14.033         1.383         7.814
  WS02004404WS02004405       405.137       704.955        14.054         1.384         7.824
  WS02004403WS02004404       404.903       704.588        13.988         1.375         7.781
  WS02004402WS02004403       406.281       706.823        14.052         1.382         7.818
  WS02004139WS02001211      1445.338      2323.894       133.069        16.526        82.850
  WS02004138WS02004139      1450.010      2331.413       133.490        16.579        83.112
  WS02003067WS02003066       392.114       683.716        13.510         1.328         7.513
  WS02001213WS02003059      1477.544      2375.402       136.158        16.913        84.781
  WS02001212WS02001213      1489.255      2394.164       137.284        17.053        85.485
  WS02001211WS02001212      1489.774      2394.970       137.347        17.061        85.525
  WS02003072WS02003073      1959.832      3202.831       158.726        19.379        97.972
  WS02003069WS02003072      1964.076      3209.755       159.054        19.419        98.174
  WS02003060WS02003069      1967.997      3216.162       159.337        19.453        98.347
  WS02003059WS02003060      1472.909      2368.041       135.642        16.847        84.456
  HS02004901HS02004770         4.126         7.680         0.079         0.006         0.037
  HS02004876HS02004881        15.746        29.638         0.415         0.034         0.214
  HS02004870HS02004876        12.019        22.502         0.352         0.030         0.185
  HS02004842HS02004848         2.167         3.900         0.047         0.003         0.021
  HS02004837HS02004842         6.782        11.242         0.515         0.062         0.315
  HS02004830HS02004837        52.171        86.145         4.300         0.528         2.661
  HS02004824HS02004830        52.921        87.347         4.372         0.537         2.706
  HS02004817HS02004824        61.589       103.602         4.577         0.551         2.810
  HS02004770HS02004777        15.759        29.563         0.334         0.022         0.152
  HS02004799HS02004480        61.042       109.541         2.302         0.237         1.288
  HS02004792HS02004799        56.177        99.872         2.260         0.238         1.277
  HS02004788HS02004792        35.163        62.217         1.713         0.188         0.995
  HS02004785HS02004788        17.259        31.977         0.486         0.041         0.248
  HS02004777HS02004785        16.720        31.102         0.438         0.035         0.218
  HS02004480HS02004478        74.990       136.394         2.494         0.248         1.371
  HS02004479HS02004480        18.244        33.695         0.601         0.062         0.338
  HS02004862HS02004870         8.953        16.405         0.291         0.027         0.156
  HS02004848HS02004852         2.862         5.223         0.061         0.004         0.028
  HS02004856HS02004862         5.390        10.200         0.110         0.007         0.051
  HS02004852HS02004856         2.858         5.215         0.061         0.004         0.028
  HS02004802HS02004478        65.926       113.033         4.428         0.525         2.697
  HS02004478WS02006287       140.789       249.223         6.910         0.771         4.061
  HS02004817HS02004807        60.225       101.420         4.448         0.535         2.729
  HS02004807HS02004802        66.581       114.076         4.492         0.533         2.737
  YS02001759YS02001757       161.804       278.030         3.547         0.249         1.760
  YS02001762YS02001759        85.156       147.429         2.050         0.150         1.039
  YS02001765YS02001762        84.482       146.160         2.060         0.152         1.048
  YS02001770YS02001767        81.915       141.959         1.758         0.112         0.855
  YS02001774YS02001770         5.145         8.890         0.126         0.009         0.064
  YS02001779YS02001774         3.836         6.452         0.182         0.020         0.107
  YS02001649YS02001757       208.204       348.317         4.654         0.346         2.282
  YS02001767YS02001765        84.376       145.907         2.071         0.153         1.055
  YS02006561YS02001783       333.942       569.672         8.565         0.711         4.472
  YS02001783YS02001784       333.867       569.562         8.562         0.710         4.470
  YS02001784YS02001785       341.253       581.400         9.276         0.800         4.917
  YS02001788YS02001790       341.930       582.506         9.350         0.809         4.964
  YS02001790YS02001791       343.019       584.271         9.451         0.822         5.027
  YS02001791YS02001793       342.977       584.217         9.446         0.821         5.024
  YS02001910YS02001907       113.670       190.191         4.028         0.375         2.233
  YS02001786YS02001788       341.493       581.796         9.304         0.804         4.935
  YS02001915YS02001910       113.577       189.998         3.981         0.368         2.201
  YS02001918YS02001915        57.649        92.461         2.741         0.299         1.609
  YS02001923YS02001920        37.660        60.495         0.797         0.056         0.392
  YS02001926YS02001923        37.298        59.913         0.758         0.051         0.368
  YS02001929YS02001926        37.035        59.482         0.727         0.047         0.348
  YS02001920YS02001918        57.589        92.387         2.716         0.296         1.592
  YS02001629YS02163301        42.255        70.495         0.931         0.059         0.431
  YS02001619YS02001622        45.504        75.567         1.007         0.063         0.465
  YS02001622YS02001625        44.670        74.337         0.986         0.061         0.455
  YS02001625YS02001629        43.595        72.752         0.960         0.060         0.444
  YS02163301YS02001633        42.884        71.596         0.942         0.060         0.437
  YS02163601YS02164001       118.531       196.363         2.536         0.179         1.222
  YS02164001YS02001641       118.273       195.946         2.518         0.177         1.211
  YS02001641YS02001644       119.129       197.382         2.526         0.178         1.214
  YS02001647YS02001649       169.398       281.604         3.551         0.251         1.713
  YS02006553YS02006556       241.953       411.303         6.546         0.567         3.479
  YS02006556YS02006558       241.903       411.206         6.513         0.562         3.457
  YSB6556YSB1171               9.705        18.077         0.252         0.024         0.136
  YS02001907YS02006553       241.941       411.303         6.544         0.567         3.478
  YS02006558YS02006561       333.885       569.558         8.562         0.711         4.471
  YS02001633YS02163601       119.192       197.361         2.519         0.176         1.207
  YS02001644YS02001647       173.048       287.390         3.604         0.254         1.736
  YS02001745YS02001748        64.068       109.170         1.416         0.087         0.687
  YS02001748YS02001751        69.210       117.538         1.923         0.151         1.005
  YS02001751YS02001754        67.095       113.803         1.945         0.158         1.028
  YS02001754YS02001757        68.021       115.265         2.115         0.181         1.138
  YS02001882YS02001884         0.871         1.419         0.023         0.002         0.012
  YS02001884YS02001887         3.183         5.377         0.075         0.006         0.039
  YS02001890YS02001895       129.382       222.714         2.540         0.193         1.257
  YS02001895YS02001898       129.240       222.512         2.533         0.193         1.253
  YS02001898YS02001901       129.117       222.336         2.531         0.192         1.252
  YS02001901YS02001904       129.152       222.426         2.550         0.195         1.264
  YS02001904YS02001907       129.871       223.618         2.640         0.207         1.321
  YS02001887YS02001890       130.236       224.034         2.602         0.201         1.295
  YS02001652YS02001649        50.103        84.753         1.351         0.113         0.681
  YS02001655YS02001652        51.019        86.193         1.376         0.115         0.693
  YS02001658YS02001655        49.127        83.229         1.075         0.076         0.499
  YS02001661YS02001658        53.062        89.928         1.124         0.076         0.514
  YS02001664YS02001661        60.645       101.998         1.295         0.088         0.591
  YSB1154YSB6556               9.211        17.289         0.192         0.016         0.098
  YSB1174YSB1171               6.658        12.590         0.170         0.016         0.090
  YSB1171HS02004479           18.149        33.552         0.591         0.061         0.333
  HS02004881HS02006253        17.762        33.577         0.450         0.036         0.231
  YS02001793JiankangQianchi       344.450       586.607         9.513         0.828         5.062
  YS02001757CaochengTiaoxuchi       384.947       656.187         8.865         0.664         4.430
  WSF200WS02003060           391.689       683.008        13.509         1.328         7.514
  1                         1958.584      3200.694       158.746        19.384        97.991
  CC-Pump-1                  103.286       177.234         2.363         0.178         1.182
  CC-Pump-2                   61.215       104.876         1.402         0.105         0.701
  JK-Pump-1                   86.634       147.984         2.423         0.213         1.294
  JK-Pump-2                  160.622       274.168         4.294         0.367         2.267
  XR-Pump-1                  413.867       665.192        38.219         4.749        23.803
  XR-Pump-2                  362.819       583.403        33.383         4.146        20.783
  XR-Pump-3                  339.216       545.512        31.180         3.871        19.410
  XR-Pump-4                  339.216       545.512        31.180         3.871        19.410
  

  Analysis begun on:  Sun Jul 11 11:08:42 2021
  Analysis ended on:  Sun Jul 11 11:08:45 2021
  Total elapsed time: 00:00:03