
  EPA STORM WATER MANAGEMENT MODEL - VERSION 5.1 (Build 5.3.0.dev0)
  --------------------------------------------------------------

  WARNING 04: minimum elevation drop used for Conduit WS02004404WS02004405
  WARNING 03: negative offset ignored for Link YS02001904YS02001907
  
  *********************************************************
  NOTE: The summary statistics displayed in this report are
  based on results found at every computational time step,  
  not just on results from each reporting time step.
  *********************************************************
  
  ****************
  Analysis Options
  ****************
  Flow Units ............... LPS
  Process Models:
    Rainfall/Runoff ........ YES
    RDII ................... NO
    Snowmelt ............... NO
    Groundwater ............ NO
    Flow Routing ........... YES
    Ponding Allowed ........ NO
    Water Quality .......... YES
  Infiltration Method ...... HORTON
  Flow Routing Method ...... DYNWAVE
  Surcharge Method ......... EXTRAN
  Starting Date ............ 08/28/2015 08:00:00
  Ending Date .............. 08/28/2015 15:50:00
  Antecedent Dry Days ...... 8.0
  Report Time Step ......... 00:01:00
  Wet Time Step ............ 00:01:00
  Dry Time Step ............ 00:01:00
  Routing Time Step ........ 5.00 sec
  Variable Time Step ....... YES
  Maximum Trials ........... 8
  Number of Threads ........ 4
  Head Tolerance ........... 0.001500 m
  
  
  **************************        Volume         Depth
  Runoff Quantity Continuity     hectare-m            mm
  **************************     ---------       -------
  Total Precipitation ......         1.477         3.234
  Evaporation Loss .........         0.000         0.000
  Infiltration Loss ........         0.359         0.786
  Surface Runoff ...........         0.750         1.641
  Final Storage ............         0.369         0.808
  Continuity Error (%) .....        -0.023
  
  
  **************************           COD            SS            TN            TP         NH4-N
  Runoff Quality Continuity             kg            kg            kg            kg            kg
  **************************    ----------    ----------    ----------    ----------    ----------
  Initial Buildup ..........     41378.656     70582.865      1804.177       168.684      1032.807
  Surface Buildup ..........        13.439        13.752         3.357         0.312         1.993
  Wet Deposition ...........         0.000         0.000         0.000         0.000         0.000
  Sweeping Removal .........         0.000         0.000         0.000         0.000         0.000
  Infiltration Loss ........        11.953        19.502         0.256         0.017         0.118
  BMP Removal ..............         0.000         0.000         0.000         0.000         0.000
  Surface Runoff ...........       327.121       520.567         7.012         0.439         3.286
  Remaining Buildup ........     41052.920     70056.391      1800.264       168.541      1031.395
  Continuity Error (%) .....         0.000         0.000         0.000         0.000         0.000
  
  
  **************************        Volume        Volume
  Flow Routing Continuity        hectare-m      10^6 ltr
  **************************     ---------     ---------
  Dry Weather Inflow .......         0.616         6.165
  Wet Weather Inflow .......         0.749         7.492
  Groundwater Inflow .......         0.000         0.000
  RDII Inflow ..............         0.000         0.000
  External Inflow ..........         0.102         1.024
  External Outflow .........         0.992         9.924
  Flooding Loss ............         0.105         1.051
  Evaporation Loss .........         0.000         0.000
  Exfiltration Loss ........         0.000         0.000
  Initial Stored Volume ....         0.076         0.761
  Final Stored Volume ......         0.504         5.040
  Continuity Error (%) .....        -3.718
  
  
  **************************           COD            SS            TN            TP         NH4-N
  Quality Routing Continuity            kg            kg            kg            kg            kg
  **************************    ----------    ----------    ----------    ----------    ----------
  Dry Weather Inflow .......      1541.201      2465.922       147.955        18.494        92.472
  Wet Weather Inflow .......       326.993       520.380         7.009         0.438         3.285
  Groundwater Inflow .......         0.000         0.000         0.000         0.000         0.000
  RDII Inflow ..............         0.000         0.000         0.000         0.000         0.000
  External Inflow ..........       183.418       293.469        17.608         2.201        11.005
  External Outflow .........      1500.186      2407.108       137.383        17.057        85.555
  Flooding Loss ............        54.266        86.942         2.066         0.206         1.166
  Exfiltration Loss ........         0.000         0.000         0.000         0.000         0.000
  Mass Reacted .............         0.000         0.000         0.000         0.000         0.000
  Initial Stored Mass ......         0.000         0.000         0.000         0.000         0.000
  Final Stored Mass ........       392.277       619.150        25.205         2.921        15.186
  Continuity Error (%) .....         5.112         5.079         4.588         4.497         4.548
  
  
  *************************
  Highest Continuity Errors
  *************************
  Node HS02004842 (34.50%)
  Node YS02001774 (34.07%)
  Node YS02001884 (29.14%)
  Node JK-storage (-18.67%)
  Node YSB1171 (9.56%)
  
  
  ***************************
  Time-Step Critical Elements
  ***************************
  Link WS02006280WS02006229 (27.07%)
  Link WS02006252WS02006251 (26.47%)
  Link YS02001793JiankangQianchi (17.13%)
  Link WS02006238WS02006235 (9.34%)
  Link WS02003066WSF200 (4.54%)
  
  
  ********************************
  Highest Flow Instability Indexes
  ********************************
  Link WS02006113WS02006111 (50)
  Link YS02164001YS02001641 (12)
  Link YS02001641YS02001644 (12)
  Link YS02163601YS02164001 (12)
  Link YS02001647YS02001649 (11)
  
  
  *************************
  Routing Time Step Summary
  *************************
  Minimum Time Step           :     0.30 sec
  Average Time Step           :     2.69 sec
  Maximum Time Step           :     5.00 sec
  Percent in Steady State     :    -0.00
  Average Iterations per Step :     2.49
  Percent Not Converging      :     2.60
  
  
  ***************************
  Subcatchment Runoff Summary
  ***************************
  
  ------------------------------------------------------------------------------------------------------------------------------
                            Total      Total      Total      Total     Imperv       Perv      Total       Total     Peak  Runoff
                           Precip      Runon       Evap      Infil     Runoff     Runoff     Runoff      Runoff   Runoff   Coeff
  Subcatchment                 mm         mm         mm         mm         mm         mm         mm    10^6 ltr      LPS
  ------------------------------------------------------------------------------------------------------------------------------
  sub0                       3.23       0.00       0.00       0.23       2.96       0.00       2.96        0.00     1.00   0.916
  sub1                       3.23       0.00       0.00       0.36       2.79       0.00       2.79        0.02     5.21   0.864
  sub2                       3.23       0.00       0.00       1.20       1.96       0.00       1.96        0.02     4.55   0.606
  sub3                       3.23       0.00       0.00       1.20       1.93       0.00       1.93        0.04     9.16   0.597
  sub4                       3.23       0.00       0.00       0.36       2.67       0.00       2.67        0.06    10.05   0.825
  sub5                       3.23       0.00       0.00       0.23       2.92       0.00       2.92        0.03     9.27   0.903
  sub7                       3.23       0.00       0.00       0.29       2.88       0.00       2.88        0.01     3.32   0.892
  sub8                       3.23       0.00       0.00       0.29       2.88       0.00       2.88        0.02     5.83   0.889
  sub9                       3.23       0.00       0.00       0.29       2.87       0.00       2.87        0.01     4.32   0.888
  sub10                      3.23       0.00       0.00       0.26       2.89       0.00       2.89        0.03     9.29   0.895
  sub11                      3.23       0.00       0.00       0.26       2.91       0.00       2.91        0.03    10.98   0.900
  sub12                      3.23       0.00       0.00       0.42       2.77       0.00       2.77        0.02     9.31   0.856
  sub14                      3.23       0.00       0.00       0.29       2.87       0.00       2.87        0.03     8.43   0.888
  sub15                      3.23       0.00       0.00       0.97       2.21       0.00       2.21        0.04    11.42   0.682
  sub16                      3.23       0.00       0.00       1.07       2.13       0.00       2.13        0.02     8.20   0.658
  sub17                      3.23       0.00       0.00       1.04       2.16       0.00       2.16        0.02     6.62   0.667
  sub22                      3.23       0.00       0.00       1.39       1.80       0.00       1.80        0.11    37.59   0.558
  sub23                      3.23       0.00       0.00       1.20       2.00       0.00       2.00        0.10    32.04   0.617
  sub60                      3.23       0.00       0.00       0.39       1.78       0.00       1.78        0.54    44.27   0.550
  sub61                      3.23       0.00       0.00       0.55       1.95       0.00       1.95        0.60    57.46   0.603
  sub62                      3.23       0.00       0.00       0.26       2.08       0.00       2.08        0.64    58.12   0.642
  sub63                      3.23       0.00       0.00       0.94       1.75       0.00       1.75        0.53    54.40   0.542
  sub64                      3.23       0.00       0.00       0.49       1.70       0.00       1.70        0.52    41.95   0.525
  sub65                      3.23       0.00       0.00       0.42       1.72       0.00       1.72        0.53    42.47   0.531
  sub66                      3.23       0.00       0.00       0.94       1.49       0.00       1.49        0.46    38.84   0.462
  sub67                      3.23       0.00       0.00       0.26       2.33       0.00       2.33        0.72    77.12   0.721
  sub68                      3.23       0.00       0.00       0.45       2.09       0.00       2.09        0.64    64.10   0.645
  sub69                      3.23       0.00       0.00       0.49       2.30       0.00       2.30        0.54    66.22   0.712
  sub70                      3.23       2.35       0.00       1.90       2.70       0.00       2.70        0.62    48.43   0.483
  sub71                      3.23       0.00       0.00       0.26       1.97       0.00       1.97        0.47    40.08   0.609
  sub72                      3.23       0.00       0.00       0.23       1.32       0.00       1.32        0.27    18.21   0.407
  1                          3.23       2.62       0.00       1.29       2.66       0.20       2.85        0.67    43.91   0.487
  2                          3.23       0.00       0.00       2.37       0.70       0.05       0.75        0.30    39.88   0.232
  
  
  ****************************
  Subcatchment Washoff Summary
  ****************************
  
  ------------------------------------------------------------------------------------------
                                 COD            SS            TN            TP         NH4-N
  Subcatchment                    kg            kg            kg            kg            kg
  ------------------------------------------------------------------------------------------
  sub0                         0.380         0.677         0.006         0.001         0.003
  sub1                         1.490         2.659         0.029         0.002         0.014
  sub2                         0.847         1.451         0.020         0.001         0.009
  sub3                         1.995         3.357         0.047         0.003         0.021
  sub4                         3.159         5.528         0.068         0.004         0.033
  sub5                         3.382         5.955         0.060         0.004         0.029
  sub7                         0.819         1.502         0.016         0.001         0.008
  sub8                         1.246         2.324         0.026         0.001         0.013
  sub9                         1.042         1.915         0.021         0.001         0.010
  sub10                        2.855         5.106         0.053         0.004         0.026
  sub11                        2.906         5.294         0.056         0.004         0.027
  sub12                        2.458         4.426         0.044         0.003         0.021
  sub14                        2.189         3.986         0.043         0.003         0.021
  sub15                        2.511         4.347         0.051         0.004         0.024
  sub16                        1.639         2.859         0.033         0.002         0.015
  sub17                        1.483         2.558         0.028         0.002         0.013
  sub22                        7.431        12.618         0.150         0.011         0.069
  sub23                        4.728         8.357         0.111         0.007         0.050
  sub60                       20.768        32.599         0.473         0.026         0.225
  sub61                       26.877        42.100         0.548         0.034         0.262
  sub62                       28.534        45.539         0.626         0.036         0.298
  sub63                       20.579        31.984         0.480         0.031         0.216
  sub64                       23.753        35.849         0.480         0.032         0.225
  sub65                       24.364        36.933         0.497         0.033         0.234
  sub66                       14.995        22.986         0.364         0.022         0.166
  sub67                       43.106        68.339         0.810         0.056         0.389
  sub68                       30.770        48.874         0.654         0.040         0.309
  sub69                       29.804        48.230         0.607         0.039         0.286
  sub70                       41.734        67.423         0.942         0.060         0.429
  sub71                       18.941        30.455         0.449         0.023         0.213
  sub72                       10.792        15.929         0.225         0.014         0.108
  1                           17.721        28.864         0.421         0.027         0.188
  2                            3.362         5.197         0.122         0.007         0.050
  ------------------------------------------------------------------------------------------
  System                     398.659       636.221         8.561         0.538         4.002
  
  
  ******************
  Node Depth Summary
  ******************
  
  ---------------------------------------------------------------------------------
                                 Average  Maximum  Maximum  Time of Max    Reported
                                   Depth    Depth      HGL   Occurrence   Max Depth
  Node                 Type       Meters   Meters   Meters  days hr:min      Meters
  ---------------------------------------------------------------------------------
  WS02001211           JUNCTION     0.61     0.77     5.61     0  03:26        0.77
  WS02001212           JUNCTION     0.34     0.48     5.54     0  03:25        0.48
  WS02001213           JUNCTION     0.55     0.71     5.47     0  03:24        0.71
  WS02003069           JUNCTION     0.33     0.50     5.08     0  03:23        0.50
  WS02003072           JUNCTION     0.39     0.56     4.93     0  03:24        0.56
  WS02003073           JUNCTION     0.23     0.34     4.41     0  03:24        0.34
  WS02003060           JUNCTION     0.29     0.44     5.37     0  03:22        0.44
  WS02003066           JUNCTION     0.14     0.24     5.79     0  03:19        0.24
  WS02003059           JUNCTION     0.61     0.76     5.45     0  03:24        0.76
  WS02003067           JUNCTION     0.37     0.60     5.92     0  03:19        0.60
  WS02004401           JUNCTION     0.46     0.68     6.68     0  03:14        0.68
  WS02004402           JUNCTION     0.49     0.71     6.67     0  03:14        0.71
  WS02004403           JUNCTION     0.52     0.73     6.66     0  03:14        0.73
  WS02004404           JUNCTION     0.59     0.81     6.66     0  03:14        0.81
  WS02004406           JUNCTION     0.61     0.82     6.65     0  03:14        0.82
  WS02004409           JUNCTION     0.25     0.50     6.27     0  03:18        0.50
  WS02004410           JUNCTION     0.28     0.52     6.24     0  03:18        0.52
  WS02004411           JUNCTION     0.30     0.54     6.22     0  03:18        0.54
  WS02004412           JUNCTION     0.32     0.56     6.20     0  03:19        0.56
  WS02004413           JUNCTION     0.47     0.72     6.19     0  03:19        0.72
  WS02004405           JUNCTION     0.59     0.81     6.66     0  03:14        0.81
  WS02006109           JUNCTION     0.51     0.75     7.37     0  03:07        0.75
  WS02006110           JUNCTION     0.53     0.75     7.34     0  03:08        0.75
  WS02006111           JUNCTION     0.13     0.22     6.93     0  03:08        0.22
  WS02006112           JUNCTION     0.60     0.85     6.73     0  03:13        0.85
  WS02006113           JUNCTION     0.19     0.34     7.23     0  03:08        0.34
  WS02006115           JUNCTION     0.34     0.56     6.70     0  03:14        0.56
  WS02006116           JUNCTION     0.42     0.65     6.69     0  03:14        0.65
  WS02006230           JUNCTION     0.41     0.69     7.44     0  03:07        0.69
  WS02006231           JUNCTION     0.23     0.45     7.57     0  03:12        0.45
  WS02006232           JUNCTION     0.33     0.59     7.63     0  03:13        0.59
  WS02006234           JUNCTION     0.23     0.50     7.65     0  03:11        0.50
  WS02006235           JUNCTION     0.26     0.53     7.69     0  03:13        0.53
  WS02006238           JUNCTION     0.28     0.55     7.69     0  03:13        0.55
  WS02006240           JUNCTION     0.19     0.40     7.69     0  07:50        0.40
  WS02006242           JUNCTION     0.23     0.48     7.75     0  07:50        0.48
  WS02006243           JUNCTION     0.13     0.36     7.78     0  07:50        0.36
  WS02006245           JUNCTION     0.13     0.37     7.86     0  07:50        0.37
  WS02006247           JUNCTION     0.14     0.40     7.90     0  07:50        0.40
  WS02006248           JUNCTION     0.10     0.35     7.94     0  07:50        0.35
  WS02006249           JUNCTION     0.13     0.40     8.00     0  07:50        0.40
  WS02006239           JUNCTION     0.22     0.48     7.69     0  03:12        0.48
  WS02006251           JUNCTION     0.12     0.39     8.06     0  07:49        0.39
  WS02006252           JUNCTION     0.08     0.35     8.59     0  07:40        0.35
  WS02006253           JUNCTION     0.15     0.42     8.06     0  07:49        0.41
  WS02006256           JUNCTION     0.81     2.35     9.28     0  00:00        2.35
  WS02004138           JUNCTION     0.13     0.20     7.45     0  00:00        0.19
  WS02004139           JUNCTION     0.56     0.72     5.63     0  03:26        0.72
  WS02004407           JUNCTION     0.12     0.23     6.54     0  03:15        0.23
  WS02006228           JUNCTION     0.49     0.74     7.39     0  03:07        0.74
  WS02006229           JUNCTION     0.45     0.71     7.40     0  03:07        0.71
  WS02006280           JUNCTION     0.05     0.12     8.39     0  02:15        0.12
  WS02006284           JUNCTION     0.33     0.45     8.85     0  02:15        0.45
  WS02006287           JUNCTION     0.07     0.18     9.13     0  02:15        0.18
  WSF200               JUNCTION     0.11     0.21     5.45     0  03:19        0.21
  HS02004901           JUNCTION     0.10     0.20    10.02     0  02:13        0.20
  HS02004881           JUNCTION     0.00     0.02     9.05     0  02:15        0.02
  HS02004876           JUNCTION     0.03     0.09     9.12     0  02:14        0.09
  HS02004870           JUNCTION     0.01     0.03     9.32     0  02:15        0.03
  HS02004862           JUNCTION     0.01     0.04     9.42     0  02:16        0.04
  HS02004856           JUNCTION     0.07     0.10     9.52     0  02:15        0.10
  HS02004852           JUNCTION     0.00     0.02     9.53     0  02:16        0.02
  HS02004848           JUNCTION     0.00     0.02     9.62     0  02:13        0.02
  HS02004842           JUNCTION     0.32     0.35     9.62     0  02:13        0.35
  HS02004837           JUNCTION     0.02     0.04     9.62     0  02:13        0.04
  HS02004830           JUNCTION     0.03     0.05     9.52     0  02:14        0.05
  HS02004824           JUNCTION     0.02     0.03     9.44     0  02:16        0.03
  HS02004817           JUNCTION     0.41     0.50     9.35     0  02:15        0.50
  HS02004807           JUNCTION     0.10     0.17     9.34     0  02:15        0.17
  HS02004802           JUNCTION     0.14     0.21     9.34     0  02:15        0.21
  HS02004799           JUNCTION     0.09     0.22     9.43     0  02:14        0.22
  HS02004792           JUNCTION     0.02     0.08     9.60     0  02:13        0.08
  HS02004788           JUNCTION     0.02     0.06     9.96     0  02:14        0.06
  HS02004785           JUNCTION     0.03     0.11    10.01     0  02:14        0.11
  HS02004777           JUNCTION     0.12     0.22    10.02     0  02:14        0.22
  HS02004770           JUNCTION     0.09     0.19    10.02     0  02:13        0.19
  HS02004480           JUNCTION     0.05     0.17     9.41     0  02:14        0.16
  HS02004479           JUNCTION     0.09     0.20     9.41     0  02:14        0.20
  HS02004478           JUNCTION     0.04     0.10     9.33     0  02:15        0.10
  YS02001745           JUNCTION     0.23     0.49     8.01     0  07:33        0.49
  YS02001748           JUNCTION     0.52     0.93     8.01     0  07:33        0.93
  YS02001751           JUNCTION     0.68     1.13     8.01     0  07:33        1.13
  YS02001754           JUNCTION     0.90     1.40     8.01     0  07:33        1.40
  YS02001762           JUNCTION     1.08     1.61     8.01     0  07:33        1.61
  YS02001765           JUNCTION     1.04     1.56     8.01     0  07:33        1.56
  YS02001767           JUNCTION     1.01     1.52     8.01     0  07:33        1.52
  YS02001770           JUNCTION     1.00     1.52     8.01     0  07:33        1.52
  YS02001774           JUNCTION     1.06     1.59     8.01     0  07:33        1.59
  YS02001779           JUNCTION     0.84     1.33     8.01     0  07:33        1.33
  YS02001882           JUNCTION     0.21     0.35     7.07     0  02:45        0.35
  YS02001884           JUNCTION     0.30     0.45     7.07     0  02:44        0.45
  YS02001759           JUNCTION     1.11     1.65     8.01     0  07:33        1.65
  YS02001887           JUNCTION     0.37     0.53     7.07     0  02:44        0.53
  YS02001890           JUNCTION     0.40     0.56     7.07     0  02:44        0.56
  YS02001898           JUNCTION     0.18     0.32     7.05     0  02:45        0.32
  YS02001901           JUNCTION     0.29     0.44     7.05     0  02:46        0.44
  YS02001904           JUNCTION     0.27     0.42     7.05     0  02:46        0.42
  YS02001907           JUNCTION     0.59     0.76     7.05     0  02:45        0.76
  YS02001910           JUNCTION     0.38     0.54     7.05     0  02:45        0.54
  YS02001915           JUNCTION     0.20     0.33     7.05     0  02:45        0.33
  YS02001918           JUNCTION     0.06     0.08     7.14     0  03:03        0.08
  YS02001619           JUNCTION     0.64     1.08     8.01     0  07:33        1.08
  YS02001629           JUNCTION     0.95     1.46     8.01     0  07:32        1.46
  YS02001641           JUNCTION     1.05     1.58     8.01     0  07:32        1.58
  YS02001644           JUNCTION     1.06     1.58     8.01     0  07:32        1.58
  YS02001652           JUNCTION     0.91     1.42     8.01     0  07:32        1.42
  YS02001655           JUNCTION     0.70     1.16     8.01     0  07:32        1.16
  YS02001920           JUNCTION     0.14     0.17     7.18     0  03:02        0.17
  YS02001923           JUNCTION     0.05     0.06     7.32     0  03:01        0.06
  YS02001926           JUNCTION     0.11     0.14     7.59     0  03:01        0.14
  YS02001929           JUNCTION     0.05     0.07     7.76     0  03:01        0.07
  YS02001658           JUNCTION     0.47     0.87     8.01     0  07:32        0.87
  YS02001661           JUNCTION     0.32     0.61     8.01     0  07:32        0.61
  YS02001664           JUNCTION     0.06     0.09     8.02     0  02:36        0.09
  YS02001622           JUNCTION     0.66     1.11     8.01     0  07:33        1.11
  YS02001633           JUNCTION     1.04     1.56     8.01     0  07:32        1.56
  YS02001649           JUNCTION     1.09     1.62     8.01     0  07:32        1.62
  YS02001757           JUNCTION     1.21     1.75     8.01     0  07:33        1.75
  YS02001895           JUNCTION     0.18     0.31     7.06     0  02:44        0.31
  YS02001625           JUNCTION     0.92     1.41     8.01     0  07:32        1.41
  YS02163301           JUNCTION     0.98     1.50     8.01     0  07:32        1.50
  YS02163601           JUNCTION     1.09     1.61     8.01     0  07:32        1.61
  YS02164001           JUNCTION     1.03     1.55     8.01     0  07:32        1.55
  YS02001647           JUNCTION     0.90     1.40     8.01     0  07:32        1.40
  YSB1154              JUNCTION     0.22     0.35     9.41     0  02:14        0.35
  YSB6556              JUNCTION     0.12     0.24     9.41     0  02:14        0.24
  YSB1174              JUNCTION     0.17     0.30     9.41     0  02:14        0.30
  YSB1171              JUNCTION     0.37     0.50     9.41     0  02:14        0.50
  YS02006553           JUNCTION     0.59     0.77     7.05     0  02:46        0.77
  YS02006561           JUNCTION     0.10     0.17     6.83     0  02:46        0.17
  YS02006556           JUNCTION     0.57     0.74     7.05     0  02:46        0.74
  YS02006558           JUNCTION     0.61     0.78     7.05     0  02:46        0.78
  YS02001783           JUNCTION     0.17     0.58     6.72     0  02:51        0.56
  YS02001784           JUNCTION     0.20     0.65     6.72     0  02:50        0.65
  YS02001786           JUNCTION     0.17     0.66     6.69     0  02:51        0.66
  YS02001788           JUNCTION     0.13     0.69     6.67     0  02:50        0.68
  YS02001790           JUNCTION     0.16     1.06     6.70     0  02:47        0.99
  YS02001791           JUNCTION     0.12     1.16     6.63     0  02:51        1.15
  YS02001793           JUNCTION     0.12     1.78     6.61     0  02:51        1.78
  WSC                  OUTFALL      0.23     0.34     1.01     0  03:25        0.34
  JK-storage           STORAGE      1.13     5.80     6.60     0  02:49        5.80
  CC-storage           STORAGE      0.56     1.01     8.01     0  07:34        1.01
  XR-storage           STORAGE      2.62     6.25     4.25     0  07:24        6.25
  
  
  *******************
  Node Inflow Summary
  *******************
  
  -------------------------------------------------------------------------------------------------
                                  Maximum  Maximum                  Lateral       Total        Flow
                                  Lateral    Total  Time of Max      Inflow      Inflow     Balance
                                   Inflow   Inflow   Occurrence      Volume      Volume       Error
  Node                 Type           LPS      LPS  days hr:min    10^6 ltr    10^6 ltr     Percent
  -------------------------------------------------------------------------------------------------
  WS02001211           JUNCTION      7.35   388.54     0  03:33       0.207        7.01       0.564
  WS02001212           JUNCTION      0.00   389.59     0  03:33           0        6.97       0.398
  WS02001213           JUNCTION      0.00   390.67     0  03:33           0        6.94       0.323
  WS02003069           JUNCTION      0.32   716.93     0  03:23     0.00902        9.96       0.237
  WS02003072           JUNCTION      0.00   716.92     0  03:23           0        9.94       0.312
  WS02003073           JUNCTION      1.82   718.73     0  03:24      0.0514        9.96       0.342
  WS02003060           JUNCTION     16.53   716.60     0  03:22       0.466        9.98       0.230
  WS02003066           JUNCTION      0.00   314.71     0  03:19           0        2.63       0.067
  WS02003059           JUNCTION      0.00   392.55     0  03:32           0        6.92       0.530
  WS02003067           JUNCTION      0.00   314.71     0  03:19           0        2.64       0.180
  WS02004401           JUNCTION      0.00   317.06     0  03:12           0        2.76       0.489
  WS02004402           JUNCTION      0.00   316.65     0  03:12           0        2.75       0.481
  WS02004403           JUNCTION      0.00   316.43     0  03:13           0        2.74       0.454
  WS02004404           JUNCTION      0.16   316.48     0  03:13     0.00457        2.73       0.362
  WS02004406           JUNCTION      0.00   316.38     0  03:14           0        2.71       0.893
  WS02004409           JUNCTION      0.00   316.34     0  03:15           0        2.68       0.183
  WS02004410           JUNCTION      0.00   315.68     0  03:16           0        2.67       0.236
  WS02004411           JUNCTION      0.00   315.20     0  03:17           0        2.67       0.271
  WS02004412           JUNCTION      0.00   314.92     0  03:18           0        2.66       0.341
  WS02004413           JUNCTION      0.00   314.77     0  03:18           0        2.65       0.577
  WS02004405           JUNCTION      0.04   316.45     0  03:14     0.00107        2.72       0.554
  WS02006109           JUNCTION      1.23   320.07     0  03:07      0.0347        2.83       0.610
  WS02006110           JUNCTION      0.00   320.08     0  03:07           0        2.81       0.582
  WS02006111           JUNCTION      0.00   322.60     0  03:08           0        2.79       0.110
  WS02006112           JUNCTION      6.62   320.79     0  03:08      0.0185        2.81       0.732
  WS02006113           JUNCTION      0.00   320.00     0  03:08           0         2.8       0.237
  WS02006115           JUNCTION      0.00   319.36     0  03:08           0        2.79       0.407
  WS02006116           JUNCTION      0.00   317.82     0  03:11           0        2.77       0.406
  WS02006230           JUNCTION     10.28   267.81     0  03:12        0.29        2.14       0.488
  WS02006231           JUNCTION      0.00   257.60     0  03:12           0        1.86       0.374
  WS02006232           JUNCTION      0.00   257.60     0  03:12           0        1.87       0.997
  WS02006234           JUNCTION      0.00   257.63     0  03:11           0        1.87      -0.006
  WS02006235           JUNCTION      0.00   288.60     0  00:00           0        2.06       0.813
  WS02006238           JUNCTION      0.00   195.22     0  07:50           0       0.621       0.643
  WS02006240           JUNCTION      0.00   197.91     0  07:50           0       0.501       2.121
  WS02006242           JUNCTION      0.00   198.86     0  07:50           0       0.445       3.229
  WS02006243           JUNCTION      0.00   199.48     0  07:50           0       0.399       2.297
  WS02006245           JUNCTION      0.00   199.86     0  07:49           0       0.385       2.669
  WS02006247           JUNCTION      0.00   200.08     0  07:49           0       0.383       1.908
  WS02006248           JUNCTION      0.00   200.26     0  07:49           0       0.382       1.073
  WS02006249           JUNCTION      0.00   200.42     0  07:48           0       0.392       2.781
  WS02006239           JUNCTION      0.00   196.57     0  07:50           0       0.562       1.201
  WS02006251           JUNCTION      0.08   202.16     0  07:42     0.00217       0.409       2.070
  WS02006252           JUNCTION      0.00   200.00     0  07:40           0         0.3       0.151
  WS02006253           JUNCTION      1.00    28.08     0  02:14      0.0024       0.111       3.893
  WS02006256           JUNCTION      0.00   983.00     0  00:00           0        2.61       0.012
  WS02004138           JUNCTION      0.00   380.00     0  00:00           0        6.84       0.079
  WS02004139           JUNCTION      0.32   396.51     0  00:00     0.00905        6.84       0.657
  WS02004407           JUNCTION      0.00   316.35     0  03:14           0        2.68       0.099
  WS02006228           JUNCTION      0.00   318.83     0  03:07           0        2.81       0.512
  WS02006229           JUNCTION      0.00   318.86     0  03:07           0        2.82       0.486
  WS02006280           JUNCTION      0.00   149.31     0  02:16           0       0.696       0.011
  WS02006284           JUNCTION      0.10   149.31     0  02:15      0.0027       0.697       0.157
  WS02006287           JUNCTION      0.00   149.23     0  02:15           0       0.695       0.102
  WSF200               JUNCTION      0.00   314.71     0  03:19           0        2.63       0.045
  HS02004901           JUNCTION      8.20     8.20     0  02:07      0.0223      0.0224       8.494
  HS02004881           JUNCTION      3.32    27.33     0  02:14     0.00971       0.101       0.059
  HS02004876           JUNCTION      5.21    24.34     0  02:14      0.0186      0.0917       0.566
  HS02004870           JUNCTION      5.83    19.30     0  02:14      0.0184      0.0732       0.144
  HS02004862           JUNCTION      4.75    13.99     0  02:15      0.0239       0.055       0.302
  HS02004856           JUNCTION      4.32     9.32     0  02:14      0.0138      0.0326       4.606
  HS02004852           JUNCTION      0.00     5.36     0  02:15           0      0.0188       0.252
  HS02004848           JUNCTION      9.16     9.16     0  02:16      0.0434      0.0434       0.099
  HS02004842           JUNCTION      0.00     4.48     0  00:03           0      0.0377      52.660
  HS02004837           JUNCTION     15.64    19.28     0  02:12       0.211       0.236       0.347
  HS02004830           JUNCTION      0.15    19.41     0  02:13     0.00423       0.226       0.547
  HS02004824           JUNCTION     10.10    29.41     0  02:16      0.0571       0.282       0.192
  HS02004817           JUNCTION      0.60    30.00     0  02:16      0.0169       0.298       5.915
  HS02004807           JUNCTION     10.98    39.88     0  02:15      0.0338       0.315       1.358
  HS02004802           JUNCTION      0.00    39.95     0  02:17           0       0.311       1.322
  HS02004799           JUNCTION      8.43    93.24     0  02:13      0.0273       0.345       0.668
  HS02004792           JUNCTION     37.87    85.12     0  02:12       0.122       0.318       0.132
  HS02004788           JUNCTION     13.09    49.53     0  02:14       0.085       0.198       0.199
  HS02004785           JUNCTION      0.15    37.07     0  02:13     0.00423       0.115       0.417
  HS02004777           JUNCTION      0.03    37.57     0  02:11    0.000846       0.115       4.709
  HS02004770           JUNCTION     32.04    38.97     0  02:09      0.0952       0.116       2.746
  HS02004480           JUNCTION      0.00   109.77     0  02:14           0         0.4       0.170
  HS02004479           JUNCTION      0.00    16.94     0  02:15           0      0.0667       1.104
  HS02004478           JUNCTION      0.00   149.24     0  02:15           0       0.696       0.093
  YS02001745           JUNCTION     44.27    61.23     0  04:54       0.539       0.552       1.205
  YS02001748           JUNCTION      0.04    83.69     0  04:55     0.00127       0.548       3.826
  YS02001751           JUNCTION      0.01    61.41     0  04:35     0.00031       0.516       4.887
  YS02001754           JUNCTION      0.26    75.26     0  02:49     0.00733       0.498       5.289
  YS02001762           JUNCTION      0.00    73.76     0  02:55           0       0.558       4.206
  YS02001765           JUNCTION      0.00    75.00     0  02:56           0       0.562       4.753
  YS02001767           JUNCTION      0.54    69.56     0  02:34      0.0151       0.586       6.664
  YS02001770           JUNCTION     58.28    66.72     0  03:04       0.643       0.662       5.328
  YS02001774           JUNCTION      0.00    30.16     0  02:22           0      0.0782      51.687
  YS02001779           JUNCTION      0.01    21.25     0  03:25    0.000141      0.0327      92.031
  YS02001882           JUNCTION      0.00     2.92     0  02:06           0     0.00377      64.759
  YS02001884           JUNCTION      0.00     8.37     0  02:09           0      0.0153      41.120
  YS02001759           JUNCTION     57.50   132.44     0  02:56       0.602        1.13       2.186
  YS02001887           JUNCTION     77.57    77.57     0  02:34       0.732       0.739       0.916
  YS02001890           JUNCTION      0.00    77.04     0  02:37           0        0.72       1.036
  YS02001898           JUNCTION      0.00    76.69     0  02:39           0       0.709       0.255
  YS02001901           JUNCTION      0.00    76.72     0  02:41           0       0.709       0.723
  YS02001904           JUNCTION      0.00    76.34     0  02:42           0       0.708       0.672
  YS02001907           JUNCTION      0.00   136.65     0  02:46           0        1.51       1.437
  YS02001910           JUNCTION      0.00    61.19     0  02:54           0       0.808       1.202
  YS02001915           JUNCTION     40.10    60.72     0  02:53       0.465       0.812       0.499
  YS02001918           JUNCTION      0.00    21.13     0  03:02           0       0.348       0.257
  YS02001619           JUNCTION     38.84    38.84     0  02:48       0.458       0.458       2.788
  YS02001629           JUNCTION      0.00    40.18     0  03:15           0       0.375       8.424
  YS02001641           JUNCTION      0.00    78.60     0  02:44           0       0.798       2.907
  YS02001644           JUNCTION     41.99   120.11     0  02:56       0.517        1.29       2.151
  YS02001652           JUNCTION      0.00    70.32     0  02:56           0       0.477       5.342
  YS02001655           JUNCTION      0.15    60.95     0  02:56     0.00434       0.503       5.254
  YS02001920           JUNCTION      2.87    21.14     0  03:02      0.0809        0.35       0.510
  YS02001923           JUNCTION      0.04    18.27     0  03:01     0.00106       0.269       0.089
  YS02001926           JUNCTION      0.05    18.26     0  03:01     0.00147        0.27       0.647
  YS02001929           JUNCTION     18.21    18.21     0  03:01       0.268       0.268       0.085
  YS02001658           JUNCTION      0.00    56.56     0  05:06           0       0.522       4.092
  YS02001661           JUNCTION      0.00    54.40     0  02:36           0       0.533       2.391
  YS02001664           JUNCTION     54.40    54.40     0  02:36        0.53        0.53       0.052
  YS02001622           JUNCTION      0.00    43.00     0  03:01           0       0.445       7.771
  YS02001633           JUNCTION     42.67    85.04     0  02:58       0.533       0.859       4.006
  YS02001649           JUNCTION      0.00   195.83     0  02:57           0        1.67       2.403
  YS02001757           JUNCTION      0.00   376.31     0  02:53           0        3.17       3.058
  YS02001895           JUNCTION      0.00    76.77     0  02:40           0       0.712       0.473
  YS02001625           JUNCTION      0.00    46.02     0  03:00           0       0.413      10.557
  YS02163301           JUNCTION      0.00    43.45     0  02:59           0       0.353       7.725
  YS02163601           JUNCTION      0.11    79.67     0  02:47      0.0031       0.825       3.933
  YS02164001           JUNCTION      0.00    80.63     0  02:58           0       0.803       2.855
  YS02001647           JUNCTION      0.00   119.02     0  02:54           0        1.25       2.413
  YSB1154              JUNCTION      9.27     9.27     0  02:11      0.0331      0.0344       4.379
  YSB6556              JUNCTION      0.00     9.16     0  02:13           0      0.0354       3.635
  YSB1174              JUNCTION      9.31     9.31     0  02:07      0.0242      0.0251       5.391
  YSB1171              JUNCTION      0.00    16.95     0  02:13           0      0.0661      10.574
  YS02006553           JUNCTION      0.00   136.70     0  02:48           0         1.5       0.935
  YS02006561           JUNCTION      0.00   200.92     0  02:46           0        2.11       0.026
  YS02006556           JUNCTION      0.00   136.76     0  02:48           0         1.5       0.671
  YS02006558           JUNCTION     64.98   200.93     0  02:46       0.666        2.14       0.204
  YS02001783           JUNCTION      0.00   200.91     0  02:46           0        2.11       0.060
  YS02001784           JUNCTION      1.06   236.56     0  02:51      0.0299        2.14       0.101
  YS02001786           JUNCTION      0.06   255.35     0  02:55     0.00159        2.14       0.098
  YS02001788           JUNCTION      0.07   313.72     0  02:56       0.002        2.14       0.057
  YS02001790           JUNCTION      0.15   392.69     0  02:55     0.00437        2.14       0.052
  YS02001791           JUNCTION      0.00   443.90     0  02:56           0        2.14       0.027
  YS02001793           JUNCTION      0.00   477.21     0  02:56           0        2.15       0.022
  WSC                  OUTFALL       0.00   718.71     0  03:25           0        9.92       0.000
  JK-storage           STORAGE       0.00   531.60     0  02:57           0         2.3     -15.732
  CC-storage           STORAGE       0.00   305.18     0  02:52           0        3.07       1.809
  XR-storage           STORAGE     278.60   278.60     0  02:42        6.61        7.21      -2.246
  
  
  **********************
  Node Surcharge Summary
  **********************
  
  Surcharging occurs when water rises above the top of the highest conduit.
  ---------------------------------------------------------------------
                                               Max. Height   Min. Depth
                                   Hours       Above Crown    Below Rim
  Node                 Type      Surcharged         Meters       Meters
  ---------------------------------------------------------------------
  WS02006256           JUNCTION        5.46          2.050        0.000
  YS02001751           JUNCTION        1.83          0.133        1.067
  YS02001754           JUNCTION        3.18          0.354        0.796
  YS02001762           JUNCTION        4.32          0.612        0.538
  YS02001765           JUNCTION        4.12          0.562        0.538
  YS02001767           JUNCTION        3.95          0.523        0.507
  YS02001770           JUNCTION        3.80          0.487        0.433
  YS02001774           JUNCTION        4.23          0.590        0.460
  YS02001779           JUNCTION        3.00          0.326        0.354
  YS02001759           JUNCTION        4.46          0.648        0.562
  YS02001619           JUNCTION        1.45          0.084        0.526
  YS02001629           JUNCTION        1.44          0.084        0.386
  YS02001641           JUNCTION        4.17          0.575        0.525
  YS02001644           JUNCTION        4.19          0.580        0.340
  YS02001652           JUNCTION        3.33          0.386        0.744
  YS02001655           JUNCTION        2.05          0.163        1.037
  YS02001622           JUNCTION        1.64          0.109        0.511
  YS02001633           JUNCTION        4.03          0.539        0.521
  YS02001649           JUNCTION        4.36          0.622        0.428
  YS02001757           JUNCTION        4.91          0.751        0.459
  YS02001625           JUNCTION        3.45          0.409        0.371
  YS02163301           JUNCTION        3.84          0.496        0.534
  YS02163601           JUNCTION        4.33          0.615        0.465
  YS02164001           JUNCTION        4.09          0.555        0.545
  YS02001647           JUNCTION        3.41          0.402        0.498
  YS02001790           JUNCTION        0.12          0.257        0.900
  YS02001791           JUNCTION        0.17          0.357        1.563
  YS02001793           JUNCTION        0.26          0.780        1.820
  
  
  *********************
  Node Flooding Summary
  *********************
  
  Flooding refers to all water that overflows a node, whether it ponds or not.
  --------------------------------------------------------------------------
                                                             Total   Maximum
                                 Maximum   Time of Max       Flood    Ponded
                        Hours       Rate    Occurrence      Volume     Depth
  Node                 Flooded       LPS   days hr:min    10^6 ltr    Meters
  --------------------------------------------------------------------------
  WS02006256              0.89    978.40      0  00:00       1.037     0.000
  JK-storage              0.05    100.18      0  02:51       0.013     0.000
  
  
  **********************
  Storage Volume Summary
  **********************
  
  --------------------------------------------------------------------------------------------------
                         Average     Avg  Evap Exfil       Maximum     Max    Time of Max    Maximum
                          Volume    Pcnt  Pcnt  Pcnt        Volume    Pcnt     Occurrence    Outflow
  Storage Unit           1000 m3    Full  Loss  Loss       1000 m3    Full    days hr:min        LPS
  --------------------------------------------------------------------------------------------------
  JK-storage               0.057      19     0     0         0.291     100       0  02:49     983.00
  CC-storage               1.566      10     0     0         2.814      18       0  07:34     200.00
  XR-storage               0.315      34     0     0         0.750      81       0  07:24     380.00
  
  
  ***********************
  Outfall Loading Summary
  ***********************
  
  ---------------------------------------------------------------------------------------------------------------------------------
                         Flow       Avg       Max       Total         Total         Total         Total         Total         Total
                         Freq      Flow      Flow      Volume           COD            SS            TN            TP         NH4-N
  Outfall Node           Pcnt       LPS       LPS    10^6 ltr            kg            kg            kg            kg            kg
  ---------------------------------------------------------------------------------------------------------------------------------
  WSC                   99.96    353.06    718.71       9.924      1500.221      2407.164       137.387        17.058        85.558
  ---------------------------------------------------------------------------------------------------------------------------------
  System                99.96    353.06    718.71       9.924      1500.221      2407.164       137.387        17.058        85.558
  
  
  ********************
  Link Flow Summary
  ********************
  
  -----------------------------------------------------------------------------
                                 Maximum  Time of Max   Maximum    Max/    Max/
                                  |Flow|   Occurrence   |Veloc|    Full    Full
  Link                 Type          LPS  days hr:min     m/sec    Flow   Depth
  -----------------------------------------------------------------------------
  WS02003066WSF200     CONDUIT    314.71     0  03:19      2.51    0.05    0.17
  WS02006287WS02006284 CONDUIT    149.22     0  02:15      1.45    0.07    0.19
  WS02006284WS02006280 CONDUIT    149.31     0  02:16      1.69    0.06    0.17
  WS02006280WS02006229 CONDUIT    149.31     0  02:16      2.72    0.03    0.12
  WS02006229WS02006228 CONDUIT    318.83     0  03:07      0.96    1.06    0.89
  WS02006256WS02006235 CONDUIT    288.60     0  00:00      4.23    3.05    1.00
  WS02006253WS02006251 CONDUIT     28.06     0  02:15      0.43    0.08    0.57
  WS02006252WS02006251 CONDUIT    200.34     0  07:40      1.97    0.74    0.76
  WS02006251WS02006249 CONDUIT    200.42     0  07:48      0.92    0.58    0.56
  WS02006249WS02006248 CONDUIT    200.26     0  07:49      1.01    1.10    0.52
  WS02006248WS02006247 CONDUIT    200.08     0  07:49      0.98    0.44    0.53
  WS02006247WS02006245 CONDUIT    199.86     0  07:49      0.96    1.58    0.55
  WS02006245WS02006243 CONDUIT    199.48     0  07:50      1.05    0.59    0.52
  WS02006243WS02006242 CONDUIT    198.86     0  07:50      0.93    0.42    0.58
  WS02006242WS02006240 CONDUIT    197.91     0  07:50      0.90    0.79    0.62
  WS02006240WS02006239 CONDUIT    196.57     0  07:50      0.97    0.62    0.60
  WS02006239WS02006238 CONDUIT    195.22     0  07:50      0.88    0.62    0.72
  WS02006238WS02006235 CONDUIT    194.27     0  07:50      1.46    0.43    0.77
  WS02006235WS02006234 CONDUIT    257.63     0  03:11      1.09    2.72    0.71
  WS02006234WS02006232 CONDUIT    257.60     0  03:12      1.39    0.52    0.77
  WS02006232WS02006231 CONDUIT    257.60     0  03:12      0.85    0.54    0.73
  WS02006231WS02006230 CONDUIT    257.53     0  03:12      1.20    3.91    0.54
  WS02006230WS02006229 CONDUIT    267.93     0  03:12      0.90    5.96    0.96
  WS02006228WS02006109 CONDUIT    318.84     0  03:07      0.79    1.39    0.92
  WS02006116WS02004401 CONDUIT    317.06     0  03:12      0.58    0.44    0.66
  WS02006115WS02006116 CONDUIT    317.82     0  03:11      0.71    0.41    0.58
  WS02006113WS02006111 CONDUIT    322.60     0  03:08      2.04    0.39    0.35
  WS02006112WS02006115 CONDUIT    319.36     0  03:08      0.56    0.19    0.70
  WS02006111WS02006112 CONDUIT    319.84     0  03:08      0.96    0.15    0.63
  WS02006110WS02006113 CONDUIT    320.00     0  03:08      0.88    0.29    0.68
  WS02006109WS02006110 CONDUIT    320.08     0  03:07      0.69    0.62    0.87
  WS02004411WS02004412 CONDUIT    314.92     0  03:18      0.72    0.45    0.55
  WS02004401WS02004402 CONDUIT    316.65     0  03:12      0.54    0.38    0.69
  WS02004413WS02003067 CONDUIT    314.71     0  03:19      0.83    0.13    0.49
  WS02004412WS02004413 CONDUIT    314.77     0  03:18      0.59    0.21    0.64
  WS02004410WS02004411 CONDUIT    315.20     0  03:17      0.75    0.43    0.53
  WS02004409WS02004410 CONDUIT    315.68     0  03:16      0.80    0.41    0.51
  WS02004407WS02004409 CONDUIT    316.34     0  03:15      1.26    0.11    0.36
  WS02004406WS02004407 CONDUIT    316.35     0  03:14      0.76    0.14    0.52
  WS02004405WS02004406 CONDUIT    316.38     0  03:14      0.46    0.62    0.81
  WS02004404WS02004405 CONDUIT    316.41     0  03:14      0.46    3.10    0.81
  WS02004403WS02004404 CONDUIT    316.32     0  03:13      0.51    0.23    0.77
  WS02004402WS02004403 CONDUIT    316.43     0  03:13      0.52    0.45    0.72
  WS02004139WS02001211 CONDUIT    381.20     0  03:33      0.90    0.48    0.58
  WS02004138WS02004139 CONDUIT    396.19     0  00:00      3.65    0.08    0.43
  WS02003067WS02003066 CONDUIT    314.71     0  03:19      0.89    0.10    0.35
  WS02001213WS02003059 CONDUIT    392.55     0  03:32      0.88    0.65    0.73
  WS02001212WS02001213 CONDUIT    390.67     0  03:33      1.32    0.60    0.44
  WS02001211WS02001212 CONDUIT    389.59     0  03:33      0.78    0.30    0.63
  WS02003072WS02003073 CONDUIT    716.91     0  03:24      1.57    1.55    0.42
  WS02003069WS02003072 CONDUIT    716.92     0  03:23      1.49    0.35    0.44
  WS02003060WS02003069 CONDUIT    716.61     0  03:23      1.75    0.28    0.39
  WS02003059WS02003060 CONDUIT    395.23     0  03:32      0.95    0.26    0.60
  HS02004901HS02004770 CONDUIT      7.30     0  02:12      0.04    0.03    0.28
  HS02004876HS02004881 CONDUIT     24.37     0  02:15      0.44    0.26    0.08
  HS02004870HS02004876 CONDUIT     19.28     0  02:15      0.31    0.01    0.09
  HS02004842HS02004848 CONDUIT      4.09     0  02:25      0.02    0.00    0.27
  HS02004837HS02004842 CONDUIT      4.48     0  00:03      0.42    0.00    0.28
  HS02004830HS02004837 CONDUIT     19.26     0  02:13      0.40    0.02    0.07
  HS02004824HS02004830 CONDUIT     19.40     0  02:14      0.45    0.03    0.06
  HS02004817HS02004824 CONDUIT     29.40     0  02:16      0.17    0.01    0.38
  HS02004770HS02004777 CONDUIT     37.54     0  02:11      0.18    0.07    0.30
  HS02004799HS02004480 CONDUIT     93.02     0  02:13      0.50    0.12    0.27
  HS02004792HS02004799 CONDUIT     85.06     0  02:13      0.58    0.05    0.21
  HS02004788HS02004792 CONDUIT     49.47     0  02:14      0.74    0.03    0.10
  HS02004785HS02004788 CONDUIT     36.89     0  02:14      0.44    0.28    0.12
  HS02004777HS02004785 CONDUIT     36.92     0  02:13      0.22    0.05    0.24
  HS02004480HS02004478 CONDUIT    109.70     0  02:14      0.84    0.46    0.19
  HS02004479HS02004480 CONDUIT     17.12     0  02:16      0.15    0.02    0.26
  HS02004862HS02004870 CONDUIT     13.94     0  02:16      0.40    0.02    0.05
  HS02004848HS02004852 CONDUIT      5.36     0  02:15      0.26    0.01    0.03
  HS02004856HS02004862 CONDUIT      9.28     0  02:15      0.29    0.01    0.05
  HS02004852HS02004856 CONDUIT      5.31     0  02:16      0.09    0.01    0.08
  HS02004802HS02004478 CONDUIT     40.16     0  02:18      0.26    0.04    0.23
  HS02004478WS02006287 CONDUIT    149.23     0  02:15      1.14    0.04    0.15
  HS02004817HS02004807 CONDUIT     30.27     0  02:18      0.09    0.02    0.48
  HS02004807HS02004802 CONDUIT     39.95     0  02:17      0.21    0.08    0.27
  YS02001759YS02001757 CONDUIT    124.62     0  02:39      0.17    0.09    1.00
  YS02001762YS02001759 CONDUIT     76.59     0  02:56      0.17    0.09    1.00
  YS02001765YS02001762 CONDUIT     73.76     0  02:55      0.23    0.07    1.00
  YS02001770YS02001767 CONDUIT     69.02     0  02:34      0.30    0.27    1.00
  YS02001774YS02001770 CONDUIT     30.16     0  02:22      0.12    0.02    1.00
  YS02001779YS02001774 CONDUIT     21.24     0  03:25      0.08    0.01    1.00
  YS02001649YS02001757 CONDUIT    177.93     0  02:45      0.24    0.11    1.00
  YS02001767YS02001765 CONDUIT     75.00     0  02:56      0.26    0.09    1.00
  YS02006561YS02001783 CONDUIT    200.91     0  02:46      1.59    0.10    0.47
  YS02001783YS02001784 CONDUIT    235.50     0  02:51      1.07    0.32    0.75
  YS02001784YS02001785 CONDUIT    255.29     0  02:55      1.16    0.59    0.82
  YS02001788YS02001790 CONDUIT    392.53     0  02:55      1.67    0.29    0.93
  YS02001790YS02001791 CONDUIT    443.90     0  02:56      1.98    0.48    1.00
  YS02001791YS02001793 CONDUIT    477.21     0  02:56      3.82    0.20    1.00
  YS02001910YS02001907 CONDUIT     61.32     0  02:57      0.49    0.03    0.65
  YS02001786YS02001788 CONDUIT    313.65     0  02:56      1.77    0.60    0.84
  YS02001915YS02001910 CONDUIT     61.19     0  02:54      0.44    0.03    0.44
  YS02001918YS02001915 CONDUIT     21.13     0  03:03      0.44    0.01    0.20
  YS02001923YS02001920 CONDUIT     18.27     0  03:02      0.35    0.01    0.12
  YS02001926YS02001923 CONDUIT     18.23     0  03:01      0.40    0.03    0.11
  YS02001929YS02001926 CONDUIT     18.21     0  03:01      0.42    0.01    0.10
  YS02001920YS02001918 CONDUIT     21.13     0  03:02      0.38    0.02    0.12
  YS02001629YS02163301 CONDUIT     43.45     0  02:59      0.10    0.05    1.00
  YS02001619YS02001622 CONDUIT     43.00     0  03:01      0.59    0.06    1.00
  YS02001622YS02001625 CONDUIT     46.02     0  03:00      0.20    0.02    1.00
  YS02001625YS02001629 CONDUIT     40.18     0  03:15      0.20    0.02    1.00
  YS02163301YS02001633 CONDUIT     42.51     0  02:58      0.08    0.04    1.00
  YS02163601YS02164001 CONDUIT     80.63     0  02:58      0.12    0.07    1.00
  YS02164001YS02001641 CONDUIT     78.60     0  02:44      0.12    0.11    1.00
  YS02001641YS02001644 CONDUIT     78.19     0  02:56      0.14    0.25    1.00
  YS02001647YS02001649 CONDUIT    126.41     0  02:55      0.20    0.07    1.00
  YS02006553YS02006556 CONDUIT    136.76     0  02:48      0.22    0.12    0.73
  YS02006556YS02006558 CONDUIT    136.77     0  02:48      0.21    0.11    0.76
  YSB6556YSB1171       CONDUIT      9.26     0  02:16      0.04    0.01    0.53
  YS02001907YS02006553 CONDUIT    136.70     0  02:48      0.18    0.16    0.83
  YS02006558YS02006561 CONDUIT    200.92     0  02:46      2.05    0.44    0.38
  YS02001633YS02163601 CONDUIT     79.56     0  02:47      0.12    0.08    1.00
  YS02001644YS02001647 CONDUIT    119.02     0  02:54      0.19    0.07    1.00
  YS02001745YS02001748 CONDUIT     83.65     0  04:55      1.25    0.03    0.67
  YS02001748YS02001751 CONDUIT     61.40     0  04:35      0.99    0.03    0.97
  YS02001751YS02001754 CONDUIT     75.00     0  02:49      0.91    0.04    1.00
  YS02001754YS02001757 CONDUIT     85.47     0  02:51      0.33    0.03    1.00
  YS02001882YS02001884 CONDUIT      2.92     0  02:06      0.07    0.00    0.37
  YS02001884YS02001887 CONDUIT      8.37     0  02:09      0.05    0.01    0.47
  YS02001890YS02001895 CONDUIT     76.77     0  02:40      0.23    0.04    0.44
  YS02001895YS02001898 CONDUIT     76.69     0  02:39      0.45    0.13    0.30
  YS02001898YS02001901 CONDUIT     76.72     0  02:41      0.28    0.05    0.38
  YS02001901YS02001904 CONDUIT     76.34     0  02:42      0.24    0.12    0.43
  YS02001904YS02001907 CONDUIT     76.52     0  02:42      0.16    0.03    0.59
  YS02001887YS02001890 CONDUIT     77.04     0  02:37      0.19    0.13    0.52
  YS02001652YS02001649 CONDUIT     84.53     0  02:57      0.28    0.04    1.00
  YS02001655YS02001652 CONDUIT     70.32     0  02:56      0.98    0.03    1.00
  YS02001658YS02001655 CONDUIT     60.79     0  02:56      1.14    0.03    0.94
  YS02001661YS02001658 CONDUIT     56.56     0  05:06      1.27    0.02    0.71
  YS02001664YS02001661 CONDUIT     54.40     0  02:36      0.90    0.02    0.35
  YSB1154YSB6556       CONDUIT      9.16     0  02:13      0.19    0.02    0.42
  YSB1174YSB1171       CONDUIT      8.52     0  02:10      0.04    0.01    0.54
  YSB1171HS02004479    CONDUIT     16.94     0  02:15      0.54    0.01    0.41
  HS02004881HS02006253 CONDUIT     27.33     0  02:15      1.45    0.01    0.05
  YS02001793JiankangQianchi CONDUIT    531.60     0  02:57     11.61    0.04    1.00
  YS02001757CaochengTiaoxuchi CONDUIT    305.18     0  02:52      0.70    0.13    1.00
  WSF200WS02003060     CONDUIT    314.71     0  03:19      1.60    0.07    0.27
  1                    CONDUIT    718.71     0  03:25      3.04    0.25    0.34
  CC-Pump-1            PUMP       200.00     0  07:40              1.00
  CC-Pump-2            PUMP         0.00     0  00:00              0.00
  JK-Pump-1            PUMP       300.00     0  00:00              1.00
  JK-Pump-2            PUMP       683.00     0  00:00              1.00
  XR-Pump-1            PUMP        95.00     0  00:00              1.00
  XR-Pump-2            PUMP        95.00     0  00:00              1.00
  XR-Pump-3            PUMP        95.00     0  00:00              1.00
  XR-Pump-4            PUMP        95.00     0  00:00              1.00
  
  
  ***************************
  Flow Classification Summary
  ***************************
  
  -------------------------------------------------------------------------------------
                      Adjusted    ---------- Fraction of Time in Flow Class ---------- 
                       /Actual         Up    Down  Sub   Sup   Up    Down  Norm  Inlet 
  Conduit               Length    Dry  Dry   Dry   Crit  Crit  Crit  Crit  Ltd   Ctrl  
  -------------------------------------------------------------------------------------
  WS02003066WSF200        1.00   0.04  0.14  0.00  0.00  0.82  0.00  0.00  0.71  0.00
  WS02006287WS02006284    1.00   0.06  0.05  0.00  0.68  0.22  0.00  0.00  0.79  0.00
  WS02006284WS02006280    1.00   0.08  0.00  0.00  0.00  0.00  0.00  0.92  0.00  0.00
  WS02006280WS02006229    1.00   0.08  0.00  0.00  0.00  0.00  0.00  0.92  0.00  0.00
  WS02006229WS02006228    1.00   0.00  0.00  0.00  0.99  0.00  0.00  0.01  0.00  0.00
  WS02006256WS02006235    1.00   0.00  0.00  0.00  0.99  0.01  0.00  0.00  0.00  0.00
  WS02006253WS02006251    1.00   0.03  0.04  0.00  0.92  0.00  0.01  0.00  0.00  0.00
  WS02006252WS02006251    1.00   0.71  0.00  0.00  0.00  0.00  0.29  0.00  0.00  0.00
  WS02006251WS02006249    1.00   0.00  0.00  0.00  1.00  0.00  0.00  0.00  0.90  0.00
  WS02006249WS02006248    1.00   0.00  0.01  0.00  0.37  0.00  0.62  0.00  0.00  0.00
  WS02006248WS02006247    1.00   0.02  0.00  0.00  0.95  0.00  0.00  0.03  0.67  0.00
  WS02006247WS02006245    1.00   0.01  0.00  0.00  0.91  0.00  0.00  0.07  0.00  0.00
  WS02006245WS02006243    1.00   0.01  0.00  0.00  0.81  0.00  0.00  0.18  0.05  0.00
  WS02006243WS02006242    1.00   0.01  0.00  0.00  0.99  0.00  0.00  0.01  0.68  0.00
  WS02006242WS02006240    1.00   0.00  0.00  0.00  0.98  0.00  0.02  0.00  0.00  0.00
  WS02006240WS02006239    1.00   0.00  0.00  0.00  0.68  0.00  0.00  0.31  0.03  0.00
  WS02006239WS02006238    1.00   0.00  0.00  0.00  1.00  0.00  0.00  0.00  0.32  0.00
  WS02006238WS02006235    1.00   0.00  0.00  0.00  1.00  0.00  0.00  0.00  0.00  0.00
  WS02006235WS02006234    1.00   0.00  0.00  0.00  0.79  0.00  0.21  0.00  0.00  0.00
  WS02006234WS02006232    1.00   0.00  0.00  0.00  1.00  0.00  0.00  0.00  0.21  0.00
  WS02006232WS02006231    1.00   0.00  0.00  0.00  0.99  0.00  0.01  0.00  0.00  0.00
  WS02006231WS02006230    1.00   0.00  0.00  0.00  0.06  0.00  0.94  0.00  0.00  0.00
  WS02006230WS02006229    1.00   0.00  0.00  0.00  0.99  0.00  0.00  0.01  0.02  0.00
  WS02006228WS02006109    1.00   0.00  0.00  0.00  1.00  0.00  0.00  0.00  0.00  0.00
  WS02006116WS02004401    1.00   0.02  0.00  0.00  0.98  0.00  0.00  0.00  0.01  0.00
  WS02006115WS02006116    1.00   0.02  0.00  0.00  0.94  0.00  0.00  0.04  0.01  0.00
  WS02006113WS02006111    1.00   0.01  0.00  0.00  0.00  0.99  0.00  0.00  0.20  0.00
  WS02006112WS02006115    1.00   0.01  0.01  0.00  0.97  0.00  0.00  0.00  0.00  0.00
  WS02006111WS02006112    1.00   0.01  0.00  0.00  0.98  0.00  0.00  0.00  0.98  0.00
  WS02006110WS02006113    1.00   0.01  0.00  0.00  0.99  0.00  0.00  0.00  0.00  0.00
  WS02006109WS02006110    1.00   0.00  0.01  0.00  0.99  0.00  0.00  0.00  0.00  0.00
  WS02004411WS02004412    1.00   0.12  0.00  0.00  0.88  0.00  0.00  0.00  0.00  0.00
  WS02004401WS02004402    1.00   0.02  0.00  0.00  0.98  0.00  0.00  0.00  0.01  0.00
  WS02004413WS02003067    1.00   0.13  0.04  0.00  0.00  0.00  0.83  0.00  0.00  0.00
  WS02004412WS02004413    1.00   0.13  0.00  0.00  0.87  0.00  0.00  0.00  0.02  0.00
  WS02004410WS02004411    1.00   0.12  0.00  0.00  0.88  0.00  0.00  0.00  0.00  0.00
  WS02004409WS02004410    1.00   0.12  0.00  0.00  0.88  0.00  0.00  0.00  0.00  0.00
  WS02004407WS02004409    1.00   0.12  0.00  0.00  0.87  0.01  0.00  0.00  0.78  0.00
  WS02004406WS02004407    1.00   0.00  0.12  0.00  0.88  0.00  0.00  0.00  0.00  0.00
  WS02004405WS02004406    1.00   0.00  0.00  0.00  1.00  0.00  0.00  0.00  0.02  0.00
  WS02004404WS02004405    1.00   0.00  0.00  0.00  1.00  0.00  0.00  0.00  0.00  0.00
  WS02004403WS02004404    1.00   0.00  0.03  0.00  0.97  0.00  0.00  0.00  0.02  0.00
  WS02004402WS02004403    1.00   0.02  0.00  0.00  0.98  0.00  0.00  0.00  0.00  0.00
  WS02004139WS02001211    1.00   0.00  0.00  0.00  1.00  0.00  0.00  0.00  0.00  0.00
  WS02004138WS02004139    1.00   0.00  0.08  0.00  0.92  0.01  0.00  0.00  1.00  0.00
  WS02003067WS02003066    1.00   0.17  0.01  0.00  0.82  0.00  0.00  0.00  0.00  0.00
  WS02001213WS02003059    1.00   0.00  0.00  0.00  0.99  0.00  0.00  0.00  0.00  0.00
  WS02001212WS02001213    1.00   0.00  0.00  0.00  0.54  0.00  0.45  0.00  0.00  0.00
  WS02001211WS02001212    1.00   0.00  0.00  0.00  1.00  0.00  0.00  0.00  0.00  0.00
  WS02003072WS02003073    1.00   0.00  0.00  0.00  0.00  0.00  0.00  1.00  0.00  0.00
  WS02003069WS02003072    1.00   0.00  0.00  0.00  0.99  0.01  0.00  0.00  0.40  0.00
  WS02003060WS02003069    1.00   0.00  0.00  0.00  0.96  0.04  0.00  0.00  0.30  0.00
  WS02003059WS02003060    1.00   0.00  0.00  0.00  1.00  0.00  0.00  0.00  0.00  0.00
  HS02004901HS02004770    1.00   0.08  0.00  0.00  0.92  0.00  0.00  0.00  0.02  0.00
  HS02004876HS02004881    1.00   0.02  0.00  0.00  0.98  0.00  0.00  0.00  0.00  0.00
  HS02004870HS02004876    1.00   0.01  0.00  0.00  0.99  0.00  0.00  0.00  0.95  0.00
  HS02004842HS02004848    1.00   0.00  0.08  0.00  0.92  0.00  0.00  0.00  0.69  0.00
  HS02004837HS02004842    1.00   0.00  0.00  0.00  0.99  0.01  0.00  0.00  0.11  0.00
  HS02004830HS02004837    1.00   0.00  0.00  0.00  1.00  0.00  0.00  0.00  0.99  0.00
  HS02004824HS02004830    1.00   0.00  0.00  0.00  1.00  0.00  0.00  0.00  0.00  0.00
  HS02004817HS02004824    1.00   0.00  0.00  0.00  1.00  0.00  0.00  0.00  1.00  0.00
  HS02004770HS02004777    1.00   0.00  0.08  0.00  0.92  0.00  0.00  0.00  0.07  0.00
  HS02004799HS02004480    1.00   0.00  0.02  0.00  0.88  0.00  0.09  0.00  0.00  0.00
  HS02004792HS02004799    1.00   0.00  0.00  0.00  0.99  0.01  0.00  0.00  0.98  0.00
  HS02004788HS02004792    1.00   0.00  0.00  0.00  0.99  0.01  0.00  0.00  0.98  0.00
  HS02004785HS02004788    1.00   0.00  0.00  0.00  1.00  0.00  0.00  0.00  0.00  0.00
  HS02004777HS02004785    1.00   0.00  0.00  0.00  1.00  0.00  0.00  0.00  0.20  0.00
  HS02004480HS02004478    1.00   0.09  0.00  0.00  0.70  0.00  0.00  0.21  0.00  0.00
  HS02004479HS02004480    1.00   0.02  0.00  0.00  0.98  0.00  0.00  0.00  0.16  0.00
  HS02004862HS02004870    1.00   0.00  0.00  0.00  1.00  0.00  0.00  0.00  0.06  0.00
  HS02004848HS02004852    1.00   0.08  0.00  0.00  0.92  0.00  0.00  0.00  0.71  0.00
  HS02004856HS02004862    1.00   0.00  0.14  0.00  0.86  0.00  0.00  0.00  0.75  0.00
  HS02004852HS02004856    1.00   0.08  0.02  0.00  0.90  0.00  0.00  0.00  0.82  0.00
  HS02004802HS02004478    1.00   0.08  0.02  0.00  0.90  0.00  0.00  0.00  0.00  0.00
  HS02004478WS02006287    1.00   0.11  0.00  0.00  0.87  0.02  0.00  0.00  0.81  0.00
  HS02004817HS02004807    1.00   0.00  0.08  0.00  0.92  0.00  0.00  0.00  0.00  0.00
  HS02004807HS02004802    1.00   0.08  0.00  0.00  0.91  0.00  0.00  0.01  0.01  0.00
  YS02001759YS02001757    1.00   0.00  0.00  0.00  1.00  0.00  0.00  0.00  0.17  0.00
  YS02001762YS02001759    1.00   0.00  0.00  0.00  1.00  0.00  0.00  0.00  0.04  0.00
  YS02001765YS02001762    1.00   0.00  0.00  0.00  1.00  0.00  0.00  0.00  0.22  0.00
  YS02001770YS02001767    1.00   0.00  0.00  0.00  1.00  0.00  0.00  0.00  0.00  0.00
  YS02001774YS02001770    1.00   0.00  0.10  0.00  0.90  0.00  0.00  0.00  0.06  0.00
  YS02001779YS02001774    1.00   0.00  0.00  0.00  1.00  0.00  0.00  0.00  0.26  0.00
  YS02001649YS02001757    1.00   0.00  0.00  0.00  1.00  0.00  0.00  0.00  0.19  0.00
  YS02001767YS02001765    1.00   0.00  0.00  0.00  1.00  0.00  0.00  0.00  0.01  0.00
  YS02006561YS02001783    1.00   0.15  0.00  0.00  0.02  0.83  0.00  0.00  0.74  0.00
  YS02001783YS02001784    1.00   0.00  0.15  0.00  0.85  0.00  0.00  0.00  0.05  0.00
  YS02001784YS02001785    1.00   0.00  0.00  0.00  1.00  0.00  0.00  0.00  0.25  0.00
  YS02001788YS02001790    1.00   0.00  0.00  0.00  0.19  0.81  0.00  0.00  0.92  0.00
  YS02001790YS02001791    1.00   0.00  0.00  0.00  0.05  0.95  0.00  0.00  0.39  0.00
  YS02001791YS02001793    1.00   0.00  0.00  0.00  0.06  0.94  0.00  0.00  0.03  0.00
  YS02001910YS02001907    1.00   0.00  0.00  0.00  0.98  0.00  0.00  0.02  0.13  0.00
  YS02001786YS02001788    1.00   0.00  0.00  0.00  0.19  0.81  0.00  0.00  0.00  0.00
  YS02001915YS02001910    1.00   0.00  0.00  0.00  0.99  0.01  0.00  0.00  0.24  0.00
  YS02001918YS02001915    1.00   0.00  0.01  0.00  0.98  0.01  0.00  0.00  0.81  0.00
  YS02001923YS02001920    1.00   0.00  0.00  0.00  1.00  0.00  0.00  0.00  1.00  0.00
  YS02001926YS02001923    1.00   0.00  0.04  0.00  0.00  0.00  0.95  0.00  0.00  0.00
  YS02001929YS02001926    1.00   0.00  0.08  0.00  0.92  0.00  0.00  0.00  0.86  0.00
  YS02001920YS02001918    1.00   0.00  0.01  0.00  0.99  0.00  0.00  0.00  0.00  0.00
  YS02001629YS02163301    1.00   0.12  0.01  0.00  0.86  0.00  0.00  0.00  0.00  0.00
  YS02001619YS02001622    1.00   0.08  0.00  0.00  0.92  0.00  0.00  0.00  0.00  0.00
  YS02001622YS02001625    1.00   0.08  0.00  0.00  0.92  0.00  0.00  0.00  0.12  0.00
  YS02001625YS02001629    1.00   0.08  0.08  0.00  0.80  0.00  0.04  0.00  0.00  0.00
  YS02163301YS02001633    1.00   0.00  0.12  0.00  0.88  0.00  0.00  0.00  0.00  0.00
  YS02163601YS02164001    1.00   0.00  0.05  0.00  0.95  0.00  0.00  0.00  0.00  0.00
  YS02164001YS02001641    1.00   0.01  0.04  0.00  0.95  0.00  0.00  0.00  0.07  0.00
  YS02001641YS02001644    1.00   0.00  0.01  0.00  0.99  0.00  0.00  0.00  0.00  0.00
  YS02001647YS02001649    1.00   0.00  0.15  0.00  0.85  0.00  0.00  0.00  0.01  0.00
  YS02006553YS02006556    1.00   0.01  0.00  0.00  0.99  0.00  0.00  0.00  0.03  0.00
  YS02006556YS02006558    1.00   0.00  0.00  0.00  1.00  0.00  0.00  0.00  0.00  0.00
  YSB6556YSB1171          1.00   0.03  0.05  0.00  0.93  0.00  0.00  0.00  0.00  0.00
  YS02001907YS02006553    1.00   0.00  0.01  0.00  0.98  0.00  0.00  0.00  0.00  0.00
  YS02006558YS02006561    1.00   0.15  0.00  0.00  0.00  0.85  0.00  0.00  0.73  0.00
  YS02001633YS02163601    1.00   0.00  0.01  0.00  0.99  0.00  0.00  0.00  0.20  0.00
  YS02001644YS02001647    1.00   0.00  0.15  0.00  0.85  0.00  0.00  0.00  0.00  0.00
  YS02001745YS02001748    1.00   0.00  0.00  0.00  0.70  0.03  0.00  0.27  0.19  0.00
  YS02001748YS02001751    1.00   0.00  0.00  0.00  0.93  0.07  0.00  0.00  0.25  0.00
  YS02001751YS02001754    1.00   0.00  0.00  0.00  0.83  0.00  0.00  0.17  0.02  0.00
  YS02001754YS02001757    1.00   0.00  0.00  0.00  0.99  0.01  0.00  0.00  0.26  0.00
  YS02001882YS02001884    1.00   0.12  0.01  0.00  0.87  0.00  0.00  0.00  0.00  0.00
  YS02001884YS02001887    1.00   0.04  0.03  0.00  0.93  0.00  0.00  0.00  0.00  0.00
  YS02001890YS02001895    1.00   0.00  0.13  0.00  0.87  0.00  0.00  0.00  0.00  0.00
  YS02001895YS02001898    1.00   0.13  0.00  0.00  0.84  0.00  0.02  0.00  0.00  0.00
  YS02001898YS02001901    1.00   0.13  0.01  0.00  0.86  0.00  0.00  0.00  0.02  0.00
  YS02001901YS02001904    1.00   0.13  0.00  0.00  0.87  0.00  0.00  0.00  0.00  0.00
  YS02001904YS02001907    1.00   0.00  0.12  0.00  0.87  0.00  0.00  0.00  0.00  0.00
  YS02001887YS02001890    1.00   0.00  0.00  0.00  0.98  0.00  0.02  0.00  0.00  0.00
  YS02001652YS02001649    1.00   0.00  0.00  0.00  1.00  0.00  0.00  0.00  0.25  0.00
  YS02001655YS02001652    1.00   0.00  0.00  0.00  0.83  0.00  0.00  0.16  0.02  0.00
  YS02001658YS02001655    1.00   0.00  0.11  0.00  0.81  0.08  0.00  0.00  0.16  0.00
  YS02001661YS02001658    1.00   0.11  0.00  0.00  0.70  0.19  0.00  0.00  0.26  0.00
  YS02001664YS02001661    1.00   0.08  0.00  0.00  0.92  0.00  0.00  0.00  0.72  0.00
  YSB1154YSB6556          1.00   0.07  0.00  0.00  0.93  0.00  0.00  0.00  0.02  0.00
  YSB1174YSB1171          1.00   0.03  0.02  0.00  0.94  0.00  0.00  0.00  0.00  0.00
  YSB1171HS02004479       1.00   0.03  0.00  0.00  0.97  0.00  0.00  0.01  0.13  0.00
  HS02004881HS02006253    1.00   0.03  0.00  0.00  0.15  0.00  0.00  0.82  0.04  0.00
  YS02001793JiankangQianchi    1.00   0.00  0.00  0.00  0.63  0.37  0.00  0.00  0.67  0.00
  YS02001757CaochengTiaoxuchi    1.00   0.00  0.20  0.00  0.80  0.00  0.00  0.00  0.00  0.00
  WSF200WS02003060        1.00   0.00  0.04  0.00  0.72  0.24  0.00  0.00  0.76  0.00
  1                       1.00   0.00  0.00  0.00  0.00  1.00  0.00  0.00  0.52  0.00
  
  
  *************************
  Conduit Surcharge Summary
  *************************
  
  ----------------------------------------------------------------------------
                                                           Hours        Hours 
                         --------- Hours Full --------   Above Full   Capacity
  Conduit                Both Ends  Upstream  Dnstream   Normal Flow   Limited
  ----------------------------------------------------------------------------
  WS02006229WS02006228        0.01      0.01      0.01      0.30         0.01
  WS02006256WS02006235        2.40      2.41      5.45      1.83         0.01
  WS02006249WS02006248        0.01      0.01      0.01      0.18         0.01
  WS02006247WS02006245        0.01      0.01      0.01      0.31         0.01
  WS02006235WS02006234        0.01      0.01      0.01      2.27         0.01
  WS02006231WS02006230        0.01      0.01      0.01      2.66         0.01
  WS02006230WS02006229        0.01      0.01      0.01      3.11         0.01
  WS02006228WS02006109        0.01      0.01      0.01      0.90         0.01
  WS02006111WS02006112        0.01      0.01      0.27      0.01         0.01
  WS02004404WS02004405        0.01      0.01      0.01      3.38         0.01
  WS02003072WS02003073        0.01      0.01      0.01      2.50         0.01
  YS02001759YS02001757        4.46      4.46      4.91      0.01         0.01
  YS02001762YS02001759        4.32      4.32      4.46      0.01         0.01
  YS02001765YS02001762        4.12      4.12      4.32      0.01         0.01
  YS02001770YS02001767        3.93      3.94      3.95      0.01         0.14
  YS02001774YS02001770        3.80      3.80      4.23      0.01         0.01
  YS02001779YS02001774        3.00      3.00      4.23      0.01         0.01
  YS02001649YS02001757        4.36      4.36      4.91      0.01         0.01
  YS02001767YS02001765        3.95      3.95      4.12      0.01         0.01
  YS02001788YS02001790        0.01      0.01      0.12      0.01         0.01
  YS02001790YS02001791        0.12      0.12      0.17      0.01         0.01
  YS02001791YS02001793        0.17      0.17      0.29      0.01         0.01
  YS02001629YS02163301        3.70      3.70      3.84      0.01         0.01
  YS02001619YS02001622        1.44      1.44      1.64      0.01         0.01
  YS02001622YS02001625        1.64      1.64      3.45      0.01         0.01
  YS02001625YS02001629        1.44      1.44      3.45      0.01         0.01
  YS02163301YS02001633        3.84      3.84      4.11      0.01         0.01
  YS02163601YS02164001        4.09      4.09      4.33      0.01         0.01
  YS02164001YS02001641        4.09      4.09      4.17      0.01         0.01
  YS02001641YS02001644        4.17      4.17      4.19      0.01         0.13
  YS02001647YS02001649        3.41      3.41      4.36      0.01         0.01
  YS02001633YS02163601        4.03      4.03      4.33      0.01         0.01
  YS02001644YS02001647        3.41      3.41      4.19      0.01         0.01
  YS02001748YS02001751        0.01      0.01      1.83      0.01         0.01
  YS02001751YS02001754        1.83      1.83      3.17      0.01         0.01
  YS02001754YS02001757        3.41      3.41      4.91      0.01         0.01
  YS02001652YS02001649        3.48      3.48      4.36      0.01         0.01
  YS02001655YS02001652        2.05      2.05      3.33      0.01         0.01
  YS02001658YS02001655        0.01      0.01      2.05      0.01         0.01
  YS02001793JiankangQianchi        0.26      0.26      2.88      0.01         0.01
  YS02001757CaochengTiaoxuchi        0.25      0.25      4.91      0.01         0.01
  
  
  ***************
  Pumping Summary
  ***************
  
  ---------------------------------------------------------------------------------------------------------
                                                  Min       Avg       Max     Total     Power    % Time Off
                        Percent   Number of      Flow      Flow      Flow    Volume     Usage    Pump Curve
  Pump                 Utilized   Start-Ups       LPS       LPS       LPS  10^6 ltr     Kw-hr    Low   High
  ---------------------------------------------------------------------------------------------------------
  CC-Pump-1                8.51           2      0.00    142.91    200.00     0.300      0.46    0.0    0.0
  CC-Pump-2                0.00           0      0.00      0.00      0.00     0.000      0.00    0.0    0.0
  JK-Pump-1               36.16           5      0.00     99.89    300.00     1.064     20.02    0.0    0.0
  JK-Pump-2               27.64           5      0.00    186.75    683.00     1.547     27.47    0.0   94.6
  XR-Pump-1               78.72           6      0.00     84.70     95.00     1.824     36.40    0.0    0.0
  XR-Pump-2               74.46           6      0.00     84.28     95.00     1.710     34.48    0.0    0.0
  XR-Pump-3               72.33           6      0.00     84.08     95.00     1.653     33.03    0.0    0.0
  XR-Pump-4               72.33           6      0.00     84.08     95.00     1.653     33.03    0.0    0.0
  
  
  ***************************
  Link Pollutant Load Summary
  ***************************
  
  ------------------------------------------------------------------------------------------
                                 COD            SS            TN            TP         NH4-N
  Link                            kg            kg            kg            kg            kg
  ------------------------------------------------------------------------------------------
  WS02003066WSF200           141.897       233.450         8.110         0.924         4.840
  WS02006287WS02006284        87.305       145.057         5.876         0.696         3.567
  WS02006284WS02006280        87.734       145.746         5.917         0.701         3.592
  WS02006280WS02006229        87.714       145.714         5.915         0.701         3.591
  WS02006229WS02006228       144.143       236.559         8.000         0.904         4.756
  WS02006256WS02006235        41.419        65.805         1.650         0.166         0.937
  WS02006253WS02006251         8.524        14.925         0.279         0.026         0.151
  WS02006252WS02006251        14.420        22.659         0.397         0.032         0.205
  WS02006251WS02006249        22.238        36.497         0.683         0.060         0.364
  WS02006249WS02006248        21.632        35.533         0.661         0.058         0.351
  WS02006248WS02006247        21.588        35.475         0.665         0.058         0.354
  WS02006247WS02006245        21.680        35.620         0.677         0.060         0.362
  WS02006245WS02006243        21.881        35.940         0.690         0.061         0.370
  WS02006243WS02006242        23.555        38.633         0.763         0.069         0.412
  WS02006242WS02006240        26.790        43.775         0.893         0.082         0.486
  WS02006240WS02006239        29.876        48.637         1.020         0.095         0.559
  WS02006239WS02006238        33.598        54.475         1.178         0.112         0.650
  WS02006238WS02006235        35.968        58.171         1.272         0.121         0.703
  WS02006235WS02006234        58.915        94.796         2.171         0.212         1.213
  WS02006234WS02006232        58.998        94.933         2.184         0.213         1.221
  WS02006232WS02006231        58.178        93.643         2.154         0.210         1.204
  WS02006231WS02006230        57.355        92.340         2.123         0.207         1.187
  WS02006230WS02006229        57.210        92.094         2.127         0.208         1.190
  WS02006228WS02006109       143.460       235.496         7.970         0.901         4.739
  WS02006116WS02004401       147.271       241.894         8.384         0.954         5.001
  WS02006115WS02006116       148.176       243.321         8.448         0.962         5.040
  WS02006113WS02006111       149.288       244.867         8.614         0.983         5.146
  WS02006112WS02006115       149.291       245.108         8.529         0.972         5.089
  WS02006111WS02006112       148.861       244.196         8.585         0.980         5.128
  WS02006110WS02006113       149.901       245.848         8.657         0.988         5.172
  WS02006109WS02006110       151.219       247.952         8.746         0.999         5.226
  WS02004411WS02004412       143.272       235.651         8.195         0.934         4.891
  WS02004401WS02004402       146.218       240.214         8.312         0.946         4.957
  WS02004413WS02003067       142.047       233.664         8.118         0.925         4.845
  WS02004412WS02004413       142.812       234.930         8.170         0.932         4.877
  WS02004410WS02004411       143.529       236.047         8.208         0.936         4.899
  WS02004409WS02004410       143.811       236.493         8.223         0.937         4.908
  WS02004407WS02004409       143.864       236.556         8.223         0.937         4.907
  WS02004406WS02004407       143.697       236.265         8.210         0.936         4.900
  WS02004405WS02004406       144.892       238.173         8.291         0.945         4.949
  WS02004404WS02004405       145.213       238.636         8.289         0.944         4.946
  WS02004403WS02004404       144.605       237.658         8.212         0.934         4.897
  WS02004402WS02004403       145.416       238.952         8.263         0.940         4.928
  WS02004139WS02001211      1228.482      1965.860       116.742        14.565        72.879
  WS02004138WS02004139      1236.474      1978.648       117.496        14.659        73.349
  WS02003067WS02003066       141.910       233.473         8.111         0.925         4.841
  WS02001213WS02003059      1257.881      2012.895       119.593        14.922        74.662
  WS02001212WS02001213      1266.272      2026.322       120.387        15.021        75.158
  WS02001211WS02001212      1270.831      2033.617       120.819        15.075        75.428
  WS02003072WS02003073      1495.294      2399.161       136.921        17.000        85.267
  WS02003069WS02003072      1501.432      2409.026       137.491        17.070        85.622
  WS02003060WS02003069      1504.864      2414.517       137.810        17.110        85.821
  WS02003059WS02003060      1253.717      2006.237       119.189        14.871        74.410
  HS02004901HS02004770         1.605         2.817         0.032         0.002         0.015
  HS02004876HS02004881         6.752        11.839         0.239         0.023         0.131
  HS02004870HS02004876         5.372         9.363         0.220         0.022         0.123
  HS02004842HS02004848         0.876         1.480         0.020         0.001         0.009
  HS02004837HS02004842         5.522         8.898         0.485         0.060         0.301
  HS02004830HS02004837        46.411        74.859         4.189         0.520         2.608
  HS02004824HS02004830        47.162        76.061         4.261         0.529         2.653
  HS02004817HS02004824        50.665        82.143         4.363         0.537         2.707
  HS02004770HS02004777         6.246        11.035         0.141         0.009         0.064
  HS02004799HS02004480        32.504        54.597         1.751         0.197         1.031
  HS02004792HS02004799        30.963        51.649         1.769         0.202         1.048
  HS02004788HS02004792        21.662        36.037         1.441         0.169         0.868
  HS02004785HS02004788         7.733        13.425         0.292         0.028         0.158
  HS02004777HS02004785         7.256        12.657         0.248         0.023         0.131
  HS02004480HS02004478        37.196        63.160         1.787         0.197         1.040
  HS02004479HS02004480         9.265        15.864         0.473         0.054         0.282
  HS02004862HS02004870         4.121         7.024         0.194         0.020         0.111
  HS02004848HS02004852         0.919         1.561         0.021         0.001         0.010
  HS02004856HS02004862         1.890         3.360         0.041         0.003         0.019
  HS02004852HS02004856         0.918         1.559         0.021         0.001         0.010
  HS02004802HS02004478        50.417        82.393         4.118         0.503         2.545
  HS02004478WS02006287        87.482       145.342         5.893         0.698         3.577
  HS02004817HS02004807        49.279        79.926         4.231         0.520         2.624
  HS02004807HS02004802        51.211        83.661         4.194         0.512         2.593
  YS02001759YS02001757        53.222        84.671         1.426         0.111         0.740
  YS02001762YS02001759        29.270        47.116         0.921         0.079         0.495
  YS02001765YS02001762        29.022        46.646         0.945         0.082         0.511
  YS02001770YS02001767        26.840        43.028         0.666         0.045         0.333
  YS02001774YS02001770         4.225         6.850         0.124         0.010         0.065
  YS02001779YS02001774         3.751         6.070         0.204         0.022         0.121
  YS02001649YS02001757        74.637       115.132         1.852         0.142         0.914
  YS02001767YS02001765        29.288        47.017         0.971         0.085         0.527
  YS02006561YS02001783       126.712       201.103         4.572         0.441         2.549
  YS02001783YS02001784       126.652       201.016         4.569         0.441         2.547
  YS02001784YS02001785       134.033       212.840         5.281         0.530         2.993
  YS02001788YS02001790       134.731       213.972         5.355         0.539         3.039
  YS02001790YS02001791       135.756       215.620         5.455         0.552         3.102
  YS02001791YS02001793       135.735       215.591         5.452         0.551         3.099
  YS02001910YS02001907        50.510        79.738         2.721         0.294         1.603
  YS02001786YS02001788       134.285       213.251         5.310         0.534         3.011
  YS02001915YS02001910        50.416        79.529         2.686         0.289         1.580
  YS02001918YS02001915        31.470        49.046         2.227         0.264         1.359
  YS02001923YS02001920        11.452        17.004         0.296         0.023         0.152
  YS02001926YS02001923        11.071        16.388         0.257         0.018         0.128
  YS02001929YS02001926        10.766        15.892         0.225         0.014         0.107
  YS02001920YS02001918        31.402        48.930         2.214         0.263         1.351
  YS02001629YS02163301        12.160        18.858         0.292         0.018         0.134
  YS02001619YS02001622        14.833        22.809         0.358         0.021         0.163
  YS02001622YS02001625        14.025        21.650         0.337         0.020         0.154
  YS02001625YS02001629        12.995        20.133         0.311         0.019         0.143
  YS02163301YS02001633        11.866        18.413         0.285         0.018         0.132
  YS02163601YS02164001        35.671        54.788         0.906         0.069         0.453
  YS02164001YS02001641        35.260        54.154         0.883         0.067         0.439
  YS02001641YS02001644        35.372        54.347         0.873         0.066         0.433
  YS02001647YS02001649        56.259        86.082         1.292         0.094         0.630
  YS02006553YS02006556        94.598       149.940         3.732         0.377         2.122
  YS02006556YS02006558        94.549       149.849         3.696         0.372         2.098
  YSB6556YSB1171               4.273         7.397         0.164         0.018         0.094
  YS02001907YS02006553        94.605       149.949         3.739         0.378         2.126
  YS02006558YS02006561       126.720       201.108         4.573         0.441         2.549
  YS02001633YS02163601        36.196        55.519         0.888         0.066         0.438
  YS02001644YS02001647        56.894        86.962         1.308         0.095         0.638
  YS02001745YS02001748        27.072        42.746         1.084         0.103         0.607
  YS02001748YS02001751        25.152        39.807         0.985         0.092         0.550
  YS02001751YS02001754        24.911        39.523         1.024         0.099         0.577
  YS02001754YS02001757        25.785        40.983         1.167         0.118         0.669
  YS02001882YS02001884         0.322         0.493         0.012         0.001         0.007
  YS02001884YS02001887         1.237         1.941         0.041         0.004         0.023
  YS02001890YS02001895        44.869        71.274         1.031         0.084         0.529
  YS02001895YS02001898        44.750        71.103         1.025         0.083         0.525
  YS02001898YS02001901        44.658        70.976         1.022         0.083         0.524
  YS02001901YS02001904        44.804        71.242         1.048         0.086         0.540
  YS02001904YS02001907        45.768        72.830         1.157         0.100         0.609
  YS02001887YS02001890        45.710        72.576         1.097         0.092         0.570
  YS02001652YS02001649        20.224        31.834         0.592         0.049         0.297
  YS02001655YS02001652        21.035        33.047         0.620         0.051         0.311
  YS02001658YS02001655        20.431        31.955         0.510         0.036         0.239
  YS02001661YS02001658        20.462        31.872         0.475         0.031         0.214
  YS02001664YS02001661        20.607        32.039         0.480         0.031         0.216
  YSB1154YSB6556               3.748         6.561         0.099         0.009         0.054
  YSB1174YSB1171               3.040         5.352         0.116         0.012         0.067
  YSB1171HS02004479            9.127        15.653         0.458         0.052         0.272
  HS02004881HS02006253         7.554        13.311         0.254         0.023         0.138
  YS02001793JiankangQianchi       136.496       216.823         5.507         0.558         3.133
  YS02001757CaochengTiaoxuchi       146.516       229.954         4.031         0.325         2.078
  WSF200WS02003060           141.922       233.518         8.119         0.926         4.847
  1                         1500.221      2407.164       137.387        17.058        85.558
  CC-Pump-1                   14.376        22.589         0.392         0.032         0.202
  CC-Pump-2                    0.000         0.000         0.000         0.000         0.000
  JK-Pump-1                   30.756        48.977         1.204         0.121         0.682
  JK-Pump-2                   64.017       102.288         2.467         0.246         1.394
  XR-Pump-1                  332.670       532.354        31.600         3.942        19.726
  XR-Pump-2                  308.142       493.098        29.282         3.653        18.280
  XR-Pump-3                  299.578       479.394        28.473         3.552        17.775
  XR-Pump-4                  299.578       479.394        28.473         3.552        17.775
  

  Analysis begun on:  Sun Jul 11 11:09:54 2021
  Analysis ended on:  Sun Jul 11 11:09:55 2021
  Total elapsed time: 00:00:01