
  EPA STORM WATER MANAGEMENT MODEL - VERSION 5.1 (Build 5.3.0.dev0)
  --------------------------------------------------------------

  WARNING 04: minimum elevation drop used for Conduit WS02004404WS02004405
  WARNING 03: negative offset ignored for Link YS02001904YS02001907
  
  *********************************************************
  NOTE: The summary statistics displayed in this report are
  based on results found at every computational time step,  
  not just on results from each reporting time step.
  *********************************************************
  
  ****************
  Analysis Options
  ****************
  Flow Units ............... LPS
  Process Models:
    Rainfall/Runoff ........ YES
    RDII ................... NO
    Snowmelt ............... NO
    Groundwater ............ NO
    Flow Routing ........... YES
    Ponding Allowed ........ NO
    Water Quality .......... YES
  Infiltration Method ...... HORTON
  Flow Routing Method ...... DYNWAVE
  Surcharge Method ......... EXTRAN
  Starting Date ............ 08/28/2015 08:00:00
  Ending Date .............. 08/28/2015 15:50:00
  Antecedent Dry Days ...... 8.0
  Report Time Step ......... 00:01:00
  Wet Time Step ............ 00:01:00
  Dry Time Step ............ 00:01:00
  Routing Time Step ........ 5.00 sec
  Variable Time Step ....... YES
  Maximum Trials ........... 8
  Number of Threads ........ 4
  Head Tolerance ........... 0.001500 m
  
  
  **************************        Volume         Depth
  Runoff Quantity Continuity     hectare-m            mm
  **************************     ---------       -------
  Total Precipitation ......         1.214         2.657
  Evaporation Loss .........         0.000         0.000
  Infiltration Loss ........         0.301         0.658
  Surface Runoff ...........         0.583         1.276
  Final Storage ............         0.331         0.724
  Continuity Error (%) .....        -0.024
  
  
  **************************           COD            SS            TN            TP         NH4-N
  Runoff Quality Continuity             kg            kg            kg            kg            kg
  **************************    ----------    ----------    ----------    ----------    ----------
  Initial Buildup ..........     41378.656     70582.865      1804.177       168.684      1032.807
  Surface Buildup ..........        13.160        12.523         3.470         0.323         2.062
  Wet Deposition ...........         0.000         0.000         0.000         0.000         0.000
  Sweeping Removal .........         0.000         0.000         0.000         0.000         0.000
  Infiltration Loss ........         9.222        14.647         0.204         0.013         0.094
  BMP Removal ..............         0.000         0.000         0.000         0.000         0.000
  Surface Runoff ...........       226.675       351.591         4.977         0.307         2.328
  Remaining Buildup ........     41155.849     70229.044      1802.464       168.687      1032.447
  Continuity Error (%) .....         0.000         0.000         0.000         0.000         0.000
  
  
  **************************        Volume        Volume
  Flow Routing Continuity        hectare-m      10^6 ltr
  **************************     ---------     ---------
  Dry Weather Inflow .......         0.616         6.165
  Wet Weather Inflow .......         0.583         5.826
  Groundwater Inflow .......         0.000         0.000
  RDII Inflow ..............         0.000         0.000
  External Inflow ..........         0.102         1.024
  External Outflow .........         0.972         9.723
  Flooding Loss ............         0.048         0.477
  Evaporation Loss .........         0.000         0.000
  Exfiltration Loss ........         0.000         0.000
  Initial Stored Volume ....         0.076         0.761
  Final Stored Volume ......         0.406         4.058
  Continuity Error (%) .....        -3.504
  
  
  **************************           COD            SS            TN            TP         NH4-N
  Quality Routing Continuity            kg            kg            kg            kg            kg
  **************************    ----------    ----------    ----------    ----------    ----------
  Dry Weather Inflow .......      1541.201      2465.922       147.955        18.494        92.472
  Wet Weather Inflow .......       226.578       351.453         4.974         0.307         2.327
  Groundwater Inflow .......         0.000         0.000         0.000         0.000         0.000
  RDII Inflow ..............         0.000         0.000         0.000         0.000         0.000
  External Inflow ..........       183.418       293.469        17.608         2.201        11.005
  External Outflow .........      1536.381      2459.997       142.443        17.714        88.785
  Flooding Loss ............        26.588        41.813         1.160         0.121         0.668
  Exfiltration Loss ........         0.000         0.000         0.000         0.000         0.000
  Mass Reacted .............         0.000         0.000         0.000         0.000         0.000
  Initial Stored Mass ......         0.000         0.000         0.000         0.000         0.000
  Final Stored Mass ........       290.212       453.460        19.137         2.224        11.550
  Continuity Error (%) .....         5.023         5.001         4.573         4.496         4.537
  
  
  *************************
  Highest Continuity Errors
  *************************
  Node HS02004842 (38.26%)
  Node YS02001884 (33.12%)
  Node YS02001774 (30.40%)
  Node JK-storage (-17.60%)
  Node YS02001625 (12.06%)
  
  
  ***************************
  Time-Step Critical Elements
  ***************************
  Link WS02006280WS02006229 (44.16%)
  Link YS02001793JiankangQianchi (18.29%)
  Link WS02006238WS02006235 (17.46%)
  Link WS02003066WSF200 (6.33%)
  
  
  ********************************
  Highest Flow Instability Indexes
  ********************************
  Link WS02006113WS02006111 (38)
  Link YS02001767YS02001765 (14)
  Link YS02001765YS02001762 (13)
  Link YS02001629YS02163301 (13)
  Link YS02001759YS02001757 (13)
  
  
  *************************
  Routing Time Step Summary
  *************************
  Minimum Time Step           :     0.77 sec
  Average Time Step           :     3.56 sec
  Maximum Time Step           :     5.00 sec
  Percent in Steady State     :     0.00
  Average Iterations per Step :     2.32
  Percent Not Converging      :     0.29
  
  
  ***************************
  Subcatchment Runoff Summary
  ***************************
  
  ------------------------------------------------------------------------------------------------------------------------------
                            Total      Total      Total      Total     Imperv       Perv      Total       Total     Peak  Runoff
                           Precip      Runon       Evap      Infil     Runoff     Runoff     Runoff      Runoff   Runoff   Coeff
  Subcatchment                 mm         mm         mm         mm         mm         mm         mm    10^6 ltr      LPS
  ------------------------------------------------------------------------------------------------------------------------------
  sub0                       2.66       0.00       0.00       0.19       2.43       0.00       2.43        0.00     0.74   0.913
  sub1                       2.66       0.00       0.00       0.29       2.28       0.00       2.28        0.02     3.83   0.859
  sub2                       2.66       0.00       0.00       0.98       1.60       0.00       1.60        0.01     3.34   0.602
  sub3                       2.66       0.00       0.00       0.98       1.57       0.00       1.57        0.04     6.73   0.590
  sub4                       2.66       0.00       0.00       0.29       2.16       0.00       2.16        0.05     7.38   0.813
  sub5                       2.66       0.00       0.00       0.19       2.38       0.00       2.38        0.03     6.82   0.897
  sub7                       2.66       0.00       0.00       0.24       2.36       0.00       2.36        0.01     2.44   0.888
  sub8                       2.66       0.00       0.00       0.24       2.35       0.00       2.35        0.02     4.29   0.885
  sub9                       2.66       0.00       0.00       0.24       2.35       0.00       2.35        0.01     3.18   0.884
  sub10                      2.66       0.00       0.00       0.21       2.36       0.00       2.36        0.03     6.83   0.890
  sub11                      2.66       0.00       0.00       0.21       2.38       0.00       2.38        0.03     8.09   0.895
  sub12                      2.66       0.00       0.00       0.35       2.27       0.00       2.27        0.02     6.88   0.852
  sub14                      2.66       0.00       0.00       0.24       2.35       0.00       2.35        0.02     6.21   0.883
  sub15                      2.66       0.00       0.00       0.80       1.80       0.00       1.80        0.03     8.40   0.678
  sub16                      2.66       0.00       0.00       0.88       1.74       0.00       1.74        0.02     6.05   0.655
  sub17                      2.66       0.00       0.00       0.85       1.77       0.00       1.77        0.02     4.89   0.665
  sub22                      2.66       0.00       0.00       1.14       1.48       0.00       1.48        0.09    27.72   0.555
  sub23                      2.66       0.00       0.00       0.98       1.63       0.00       1.63        0.08    23.62   0.614
  sub60                      2.66       0.00       0.00       0.32       1.37       0.00       1.37        0.42    32.88   0.517
  sub61                      2.66       0.00       0.00       0.45       1.53       0.00       1.53        0.47    42.51   0.575
  sub62                      2.66       0.00       0.00       0.21       1.62       0.00       1.62        0.50    43.05   0.610
  sub63                      2.66       0.00       0.00       0.77       1.38       0.00       1.38        0.42    40.19   0.520
  sub64                      2.66       0.00       0.00       0.40       1.31       0.00       1.31        0.40    31.16   0.493
  sub65                      2.66       0.00       0.00       0.35       1.32       0.00       1.32        0.41    31.56   0.497
  sub66                      2.66       0.00       0.00       0.77       1.16       0.00       1.16        0.35    28.82   0.435
  sub67                      2.66       0.00       0.00       0.21       1.84       0.00       1.84        0.57    56.93   0.693
  sub68                      2.66       0.00       0.00       0.37       1.64       0.00       1.64        0.50    47.38   0.617
  sub69                      2.66       0.00       0.00       0.40       1.83       0.00       1.83        0.43    48.78   0.690
  sub70                      2.66       1.87       0.00       1.54       2.08       0.00       2.08        0.48    35.33   0.460
  sub71                      2.66       0.00       0.00       0.21       1.53       0.00       1.53        0.36    29.72   0.575
  sub72                      2.66       0.00       0.00       0.19       0.99       0.00       0.99        0.20    13.37   0.373
  1                          2.66       2.03       0.00       1.28       2.01       0.09       2.10        0.49    31.49   0.448
  2                          2.66       0.00       0.00       1.97       0.56       0.02       0.58        0.23    28.97   0.219
  
  
  ****************************
  Subcatchment Washoff Summary
  ****************************
  
  ------------------------------------------------------------------------------------------
                                 COD            SS            TN            TP         NH4-N
  Subcatchment                    kg            kg            kg            kg            kg
  ------------------------------------------------------------------------------------------
  sub0                         0.273         0.474         0.004         0.000         0.002
  sub1                         1.078         1.874         0.021         0.001         0.010
  sub2                         0.615         1.029         0.015         0.001         0.007
  sub3                         1.444         2.368         0.035         0.002         0.016
  sub4                         2.289         3.898         0.051         0.003         0.024
  sub5                         2.428         4.162         0.043         0.003         0.021
  sub7                         0.597         1.067         0.012         0.001         0.006
  sub8                         0.915         1.663         0.020         0.001         0.009
  sub9                         0.761         1.363         0.016         0.001         0.007
  sub10                        2.063         3.592         0.039         0.003         0.019
  sub11                        2.112         3.749         0.041         0.003         0.020
  sub12                        1.780         3.122         0.033         0.002         0.016
  sub14                        1.593         2.825         0.032         0.002         0.015
  sub15                        1.815         3.062         0.038         0.003         0.017
  sub16                        1.187         2.019         0.024         0.002         0.011
  sub17                        1.069         1.796         0.021         0.002         0.010
  sub22                        5.363         8.876         0.111         0.008         0.050
  sub23                        3.464         5.974         0.084         0.005         0.037
  sub60                       14.334        21.908         0.335         0.018         0.159
  sub61                       18.677        28.478         0.389         0.024         0.186
  sub62                       19.876        30.888         0.447         0.025         0.213
  sub63                       14.420        21.861         0.347         0.022         0.155
  sub64                       16.159        23.749         0.333         0.022         0.156
  sub65                       16.578        24.470         0.346         0.022         0.163
  sub66                       10.377        15.514         0.260         0.015         0.118
  sub67                       30.041        46.332         0.573         0.039         0.275
  sub68                       21.516        33.281         0.469         0.028         0.221
  sub69                       21.048        33.154         0.438         0.028         0.206
  sub70                       28.366        44.672         0.660         0.042         0.299
  sub71                       13.211        20.684         0.322         0.016         0.153
  sub72                        7.161        10.283         0.153         0.009         0.073
  1                           11.136        17.681         0.275         0.018         0.122
  2                            2.342         3.550         0.089         0.005         0.036
  ------------------------------------------------------------------------------------------
  System                     276.088       429.417         6.075         0.377         2.833
  
  
  ******************
  Node Depth Summary
  ******************
  
  ---------------------------------------------------------------------------------
                                 Average  Maximum  Maximum  Time of Max    Reported
                                   Depth    Depth      HGL   Occurrence   Max Depth
  Node                 Type       Meters   Meters   Meters  days hr:min      Meters
  ---------------------------------------------------------------------------------
  WS02001211           JUNCTION     0.63     0.77     5.61     0  04:08        0.77
  WS02001212           JUNCTION     0.35     0.47     5.54     0  04:07        0.47
  WS02001213           JUNCTION     0.56     0.70     5.46     0  04:06        0.70
  WS02003069           JUNCTION     0.33     0.48     5.06     0  04:05        0.48
  WS02003072           JUNCTION     0.40     0.54     4.91     0  04:05        0.54
  WS02003073           JUNCTION     0.23     0.33     4.39     0  04:06        0.33
  WS02003060           JUNCTION     0.30     0.42     5.35     0  04:04        0.42
  WS02003066           JUNCTION     0.14     0.25     5.80     0  02:54        0.25
  WS02003059           JUNCTION     0.61     0.75     5.44     0  04:06        0.75
  WS02003067           JUNCTION     0.39     0.61     5.93     0  02:54        0.61
  WS02004401           JUNCTION     0.46     0.69     6.69     0  02:51        0.69
  WS02004402           JUNCTION     0.49     0.73     6.69     0  02:51        0.73
  WS02004403           JUNCTION     0.52     0.75     6.68     0  02:51        0.75
  WS02004404           JUNCTION     0.59     0.83     6.68     0  02:51        0.83
  WS02004406           JUNCTION     0.61     0.83     6.66     0  02:52        0.83
  WS02004409           JUNCTION     0.25     0.51     6.28     0  02:53        0.51
  WS02004410           JUNCTION     0.28     0.53     6.25     0  02:53        0.53
  WS02004411           JUNCTION     0.31     0.55     6.23     0  02:53        0.55
  WS02004412           JUNCTION     0.33     0.57     6.21     0  02:54        0.57
  WS02004413           JUNCTION     0.49     0.73     6.20     0  02:54        0.73
  WS02004405           JUNCTION     0.59     0.82     6.67     0  02:52        0.82
  WS02006109           JUNCTION     0.50     0.77     7.39     0  02:47        0.77
  WS02006110           JUNCTION     0.52     0.77     7.35     0  02:47        0.77
  WS02006111           JUNCTION     0.12     0.23     6.93     0  02:48        0.23
  WS02006112           JUNCTION     0.59     0.86     6.75     0  02:50        0.86
  WS02006113           JUNCTION     0.17     0.35     7.25     0  02:48        0.35
  WS02006115           JUNCTION     0.33     0.58     6.72     0  02:50        0.58
  WS02006116           JUNCTION     0.42     0.66     6.70     0  02:51        0.66
  WS02006230           JUNCTION     0.39     0.71     7.46     0  02:47        0.71
  WS02006231           JUNCTION     0.20     0.46     7.58     0  02:48        0.45
  WS02006232           JUNCTION     0.30     0.59     7.63     0  02:48        0.59
  WS02006234           JUNCTION     0.19     0.50     7.66     0  02:48        0.50
  WS02006235           JUNCTION     0.22     0.53     7.70     0  02:48        0.53
  WS02006238           JUNCTION     0.24     0.55     7.70     0  02:48        0.55
  WS02006240           JUNCTION     0.15     0.40     7.70     0  02:48        0.40
  WS02006242           JUNCTION     0.18     0.43     7.70     0  02:49        0.43
  WS02006243           JUNCTION     0.09     0.28     7.70     0  02:49        0.28
  WS02006245           JUNCTION     0.07     0.21     7.70     0  02:49        0.21
  WS02006247           JUNCTION     0.08     0.20     7.70     0  02:49        0.20
  WS02006248           JUNCTION     0.04     0.11     7.70     0  02:50        0.11
  WS02006249           JUNCTION     0.06     0.14     7.74     0  02:20        0.14
  WS02006239           JUNCTION     0.18     0.49     7.70     0  02:48        0.49
  WS02006251           JUNCTION     0.04     0.12     7.79     0  02:19        0.12
  WS02006252           JUNCTION     0.00     0.00     8.24     0  00:00        0.00
  WS02006253           JUNCTION     0.08     0.17     7.81     0  02:18        0.17
  WS02006256           JUNCTION     0.83     2.35     9.28     0  00:00        2.35
  WS02004138           JUNCTION     0.14     0.20     7.45     0  00:00        0.19
  WS02004139           JUNCTION     0.57     0.72     5.63     0  04:08        0.72
  WS02004407           JUNCTION     0.11     0.23     6.55     0  02:52        0.23
  WS02006228           JUNCTION     0.47     0.76     7.41     0  02:47        0.76
  WS02006229           JUNCTION     0.43     0.73     7.43     0  02:47        0.73
  WS02006280           JUNCTION     0.05     0.11     8.38     0  02:18        0.11
  WS02006284           JUNCTION     0.33     0.43     8.83     0  02:18        0.43
  WS02006287           JUNCTION     0.06     0.15     9.11     0  02:18        0.15
  WSF200               JUNCTION     0.11     0.23     5.46     0  02:54        0.23
  HS02004901           JUNCTION     0.09     0.18    10.00     0  02:16        0.18
  HS02004881           JUNCTION     0.00     0.02     9.04     0  02:17        0.02
  HS02004876           JUNCTION     0.03     0.08     9.11     0  02:17        0.08
  HS02004870           JUNCTION     0.01     0.03     9.31     0  02:17        0.03
  HS02004862           JUNCTION     0.01     0.03     9.41     0  02:19        0.03
  HS02004856           JUNCTION     0.06     0.09     9.52     0  02:18        0.09
  HS02004852           JUNCTION     0.00     0.02     9.53     0  02:19        0.02
  HS02004848           JUNCTION     0.00     0.02     9.62     0  02:15        0.02
  HS02004842           JUNCTION     0.32     0.35     9.62     0  02:15        0.35
  HS02004837           JUNCTION     0.02     0.04     9.62     0  02:15        0.04
  HS02004830           JUNCTION     0.03     0.05     9.52     0  02:16        0.05
  HS02004824           JUNCTION     0.02     0.03     9.43     0  02:18        0.03
  HS02004817           JUNCTION     0.39     0.48     9.33     0  02:18        0.48
  HS02004807           JUNCTION     0.10     0.16     9.33     0  02:18        0.16
  HS02004802           JUNCTION     0.13     0.20     9.33     0  02:18        0.20
  HS02004799           JUNCTION     0.09     0.19     9.40     0  02:16        0.19
  HS02004792           JUNCTION     0.02     0.06     9.59     0  02:15        0.06
  HS02004788           JUNCTION     0.02     0.05     9.95     0  02:17        0.05
  HS02004785           JUNCTION     0.03     0.09    10.00     0  02:17        0.09
  HS02004777           JUNCTION     0.11     0.20    10.00     0  02:16        0.20
  HS02004770           JUNCTION     0.09     0.17    10.00     0  02:16        0.17
  HS02004480           JUNCTION     0.05     0.14     9.38     0  02:16        0.14
  HS02004479           JUNCTION     0.09     0.18     9.38     0  02:17        0.18
  HS02004478           JUNCTION     0.04     0.09     9.32     0  02:18        0.09
  YS02001745           JUNCTION     0.08     0.28     7.79     0  07:50        0.28
  YS02001748           JUNCTION     0.28     0.72     7.79     0  07:50        0.72
  YS02001751           JUNCTION     0.42     0.91     7.79     0  07:50        0.91
  YS02001754           JUNCTION     0.62     1.18     7.79     0  07:50        1.18
  YS02001762           JUNCTION     0.79     1.39     7.79     0  07:50        1.39
  YS02001765           JUNCTION     0.75     1.34     7.79     0  07:50        1.34
  YS02001767           JUNCTION     0.72     1.30     7.79     0  07:50        1.30
  YS02001770           JUNCTION     0.72     1.30     7.79     0  07:50        1.30
  YS02001774           JUNCTION     0.77     1.37     7.79     0  07:50        1.37
  YS02001779           JUNCTION     0.56     1.11     7.79     0  07:50        1.11
  YS02001882           JUNCTION     0.19     0.31     7.02     0  02:51        0.31
  YS02001884           JUNCTION     0.27     0.41     7.02     0  02:52        0.41
  YS02001759           JUNCTION     0.82     1.43     7.79     0  07:50        1.43
  YS02001887           JUNCTION     0.35     0.49     7.02     0  02:52        0.49
  YS02001890           JUNCTION     0.38     0.52     7.02     0  02:51        0.52
  YS02001898           JUNCTION     0.16     0.27     7.01     0  02:53        0.27
  YS02001901           JUNCTION     0.26     0.40     7.01     0  02:54        0.40
  YS02001904           JUNCTION     0.25     0.38     7.01     0  02:53        0.38
  YS02001907           JUNCTION     0.55     0.72     7.01     0  02:53        0.72
  YS02001910           JUNCTION     0.35     0.50     7.01     0  02:53        0.50
  YS02001915           JUNCTION     0.18     0.29     7.01     0  02:52        0.29
  YS02001918           JUNCTION     0.05     0.07     7.13     0  03:04        0.07
  YS02001619           JUNCTION     0.39     0.86     7.79     0  07:50        0.86
  YS02001629           JUNCTION     0.67     1.24     7.79     0  07:49        1.24
  YS02001641           JUNCTION     0.76     1.36     7.79     0  07:50        1.36
  YS02001644           JUNCTION     0.77     1.36     7.79     0  07:50        1.36
  YS02001652           JUNCTION     0.63     1.20     7.79     0  07:50        1.20
  YS02001655           JUNCTION     0.44     0.94     7.79     0  07:50        0.94
  YS02001920           JUNCTION     0.14     0.16     7.17     0  03:03        0.16
  YS02001923           JUNCTION     0.04     0.06     7.32     0  03:02        0.06
  YS02001926           JUNCTION     0.09     0.13     7.57     0  03:02        0.13
  YS02001929           JUNCTION     0.04     0.06     7.75     0  03:01        0.06
  YS02001658           JUNCTION     0.24     0.65     7.79     0  07:50        0.65
  YS02001661           JUNCTION     0.16     0.39     7.79     0  07:50        0.39
  YS02001664           JUNCTION     0.05     0.08     8.00     0  02:43        0.08
  YS02001622           JUNCTION     0.40     0.89     7.79     0  07:50        0.89
  YS02001633           JUNCTION     0.75     1.34     7.79     0  07:50        1.34
  YS02001649           JUNCTION     0.80     1.40     7.79     0  07:50        1.40
  YS02001757           JUNCTION     0.92     1.53     7.79     0  07:50        1.53
  YS02001895           JUNCTION     0.16     0.27     7.02     0  02:51        0.27
  YS02001625           JUNCTION     0.64     1.19     7.79     0  07:50        1.19
  YS02163301           JUNCTION     0.69     1.28     7.79     0  07:50        1.28
  YS02163601           JUNCTION     0.80     1.40     7.79     0  07:50        1.40
  YS02164001           JUNCTION     0.74     1.34     7.79     0  07:50        1.34
  YS02001647           JUNCTION     0.62     1.18     7.79     0  07:50        1.18
  YSB1154              JUNCTION     0.21     0.33     9.38     0  02:16        0.33
  YSB6556              JUNCTION     0.12     0.22     9.38     0  02:17        0.22
  YSB1174              JUNCTION     0.17     0.28     9.38     0  02:16        0.28
  YSB1171              JUNCTION     0.36     0.48     9.38     0  02:17        0.48
  YS02006553           JUNCTION     0.56     0.72     7.01     0  02:53        0.72
  YS02006561           JUNCTION     0.09     0.15     6.81     0  02:54        0.15
  YS02006556           JUNCTION     0.53     0.69     7.00     0  02:53        0.69
  YS02006558           JUNCTION     0.58     0.74     7.00     0  02:53        0.74
  YS02001783           JUNCTION     0.15     0.26     6.40     0  02:54        0.26
  YS02001784           JUNCTION     0.18     0.29     6.36     0  02:54        0.29
  YS02001786           JUNCTION     0.15     0.25     6.28     0  02:55        0.25
  YS02001788           JUNCTION     0.11     0.18     6.16     0  02:55        0.18
  YS02001790           JUNCTION     0.13     0.22     5.86     0  02:55        0.22
  YS02001791           JUNCTION     0.09     0.15     5.62     0  02:57        0.15
  YS02001793           JUNCTION     0.06     0.78     5.61     0  03:34        0.76
  WSC                  OUTFALL      0.23     0.33     1.00     0  04:06        0.33
  JK-storage           STORAGE      1.10     4.77     5.57     0  03:34        4.77
  CC-storage           STORAGE      0.31     0.79     7.79     0  07:50        0.79
  XR-storage           STORAGE      1.93     5.41     3.41     0  07:05        5.41
  
  
  *******************
  Node Inflow Summary
  *******************
  
  -------------------------------------------------------------------------------------------------
                                  Maximum  Maximum                  Lateral       Total        Flow
                                  Lateral    Total  Time of Max      Inflow      Inflow     Balance
                                   Inflow   Inflow   Occurrence      Volume      Volume       Error
  Node                 Type           LPS      LPS  days hr:min    10^6 ltr    10^6 ltr     Percent
  -------------------------------------------------------------------------------------------------
  WS02001211           JUNCTION      7.35   388.02     0  05:27       0.207        7.06       0.556
  WS02001212           JUNCTION      0.00   388.45     0  05:27           0        7.02       0.407
  WS02001213           JUNCTION      0.00   388.90     0  05:27           0           7       0.307
  WS02003069           JUNCTION      0.32   662.64     0  04:04     0.00902        9.76       0.234
  WS02003072           JUNCTION      0.00   662.63     0  04:05           0        9.73       0.310
  WS02003073           JUNCTION      1.82   664.46     0  04:06      0.0514        9.76       0.340
  WS02003060           JUNCTION     16.53   662.30     0  04:04       0.466        9.77       0.230
  WS02003066           JUNCTION      0.00   330.70     0  02:54           0        2.37       0.060
  WS02003059           JUNCTION      0.00   389.70     0  05:26           0        6.98       0.525
  WS02003067           JUNCTION      0.00   330.65     0  02:54           0        2.37       0.183
  WS02004401           JUNCTION      0.00   337.74     0  02:50           0        2.48       0.431
  WS02004402           JUNCTION      0.00   337.03     0  02:51           0        2.47       0.437
  WS02004403           JUNCTION      0.00   336.60     0  02:51           0        2.46       0.426
  WS02004404           JUNCTION      0.16   336.52     0  02:51     0.00457        2.45       0.352
  WS02004406           JUNCTION      0.00   336.21     0  02:51           0        2.43       0.883
  WS02004409           JUNCTION      0.00   335.89     0  02:52           0        2.41       0.126
  WS02004410           JUNCTION      0.00   334.48     0  02:52           0        2.41       0.200
  WS02004411           JUNCTION      0.00   333.22     0  02:53           0         2.4       0.251
  WS02004412           JUNCTION      0.00   332.14     0  02:53           0         2.4       0.331
  WS02004413           JUNCTION      0.00   331.31     0  02:54           0        2.39       0.584
  WS02004405           JUNCTION      0.04   336.41     0  02:51     0.00107        2.44       0.527
  WS02006109           JUNCTION      1.23   339.43     0  02:47      0.0347        2.51       0.308
  WS02006110           JUNCTION      0.00   339.45     0  02:47           0        2.51       0.307
  WS02006111           JUNCTION      0.00   342.48     0  02:48           0         2.5       0.044
  WS02006112           JUNCTION      4.89   340.89     0  02:48      0.0151        2.51       0.746
  WS02006113           JUNCTION      0.00   339.38     0  02:48           0         2.5       0.071
  WS02006115           JUNCTION      0.00   339.73     0  02:48           0        2.49       0.293
  WS02006116           JUNCTION      0.00   338.43     0  02:50           0        2.49       0.239
  WS02006230           JUNCTION     10.28   269.62     0  02:48        0.29         1.9       0.342
  WS02006231           JUNCTION      0.00   259.20     0  02:48           0         1.6      -0.182
  WS02006232           JUNCTION      0.00   259.42     0  02:48           0        1.61       0.436
  WS02006234           JUNCTION      0.00   259.44     0  02:47           0         1.6      -0.394
  WS02006235           JUNCTION      0.00   288.92     0  00:00           0         1.8       0.464
  WS02006238           JUNCTION      0.00   167.21     0  00:00           0        0.42       0.002
  WS02006240           JUNCTION      0.00    80.54     0  00:02           0       0.271       0.233
  WS02006242           JUNCTION      0.00    71.79     0  02:33           0       0.196       0.452
  WS02006243           JUNCTION      0.00    44.52     0  02:34           0       0.137       0.256
  WS02006245           JUNCTION      0.00    23.75     0  02:52           0        0.11       2.170
  WS02006247           JUNCTION      0.00    20.28     0  02:20           0      0.0952       0.228
  WS02006248           JUNCTION      0.00    20.28     0  02:20           0      0.0884       0.173
  WS02006249           JUNCTION      0.00    20.36     0  02:19           0      0.0866       0.314
  WS02006239           JUNCTION      0.00   121.49     0  00:01           0       0.349      -0.005
  WS02006251           JUNCTION      0.08    20.42     0  02:18     0.00217       0.086       0.083
  WS02006252           JUNCTION      0.00     0.00     0  00:00           0           0       0.000 ltr
  WS02006253           JUNCTION      0.74    20.37     0  02:17     0.00196       0.084       0.185
  WS02006256           JUNCTION      0.00   919.33     0  04:59           0        2.01       0.010
  WS02004138           JUNCTION      0.00   380.00     0  00:00           0         6.9       0.080
  WS02004139           JUNCTION      0.32   395.85     0  00:00     0.00905         6.9       0.650
  WS02004407           JUNCTION      0.00   336.00     0  02:52           0        2.41       0.057
  WS02006228           JUNCTION      0.00   338.16     0  02:47           0        2.49       0.280
  WS02006229           JUNCTION      0.00   338.19     0  02:47           0         2.5       0.355
  WS02006280           JUNCTION      0.00   111.91     0  02:18           0       0.605       0.013
  WS02006284           JUNCTION      0.10   111.90     0  02:18      0.0027       0.606       0.186
  WS02006287           JUNCTION      0.00   111.82     0  02:18           0       0.604       0.114
  WSF200               JUNCTION      0.00   330.68     0  02:54           0        2.37       0.044
  HS02004901           JUNCTION      6.05     6.05     0  02:08      0.0182      0.0184      10.562
  HS02004881           JUNCTION      2.44    19.83     0  02:17     0.00795      0.0821       0.072
  HS02004876           JUNCTION      3.83    17.64     0  02:16      0.0152      0.0746       0.692
  HS02004870           JUNCTION      4.29    13.94     0  02:16       0.015      0.0596       0.177
  HS02004862           JUNCTION      3.54    10.03     0  02:17      0.0205      0.0447       0.366
  HS02004856           JUNCTION      3.18     6.54     0  02:16      0.0113      0.0256       5.947
  HS02004852           JUNCTION      0.00     3.63     0  02:17           0      0.0144       0.322
  HS02004848           JUNCTION      6.73     6.73     0  02:18      0.0353      0.0353       0.120
  HS02004842           JUNCTION      0.00     4.48     0  00:03           0       0.034      61.972
  HS02004837           JUNCTION     13.18    16.16     0  02:14       0.205       0.226       0.362
  HS02004830           JUNCTION      0.15    16.30     0  02:15     0.00423       0.216       0.572
  HS02004824           JUNCTION      7.43    23.64     0  02:18      0.0465       0.262       0.207
  HS02004817           JUNCTION      0.60    24.24     0  02:18      0.0169       0.278       6.371
  HS02004807           JUNCTION      8.09    31.50     0  02:17      0.0276       0.289       1.483
  HS02004802           JUNCTION      0.00    31.53     0  02:19           0       0.285       1.443
  HS02004799           JUNCTION      6.21    68.52     0  02:15      0.0223       0.291       0.786
  HS02004792           JUNCTION     28.00    62.57     0  02:15       0.101       0.269       0.156
  HS02004788           JUNCTION     10.07    36.51     0  02:16      0.0781       0.169       0.232
  HS02004785           JUNCTION      0.15    26.97     0  02:15     0.00423      0.0934       0.511
  HS02004777           JUNCTION      0.03    27.39     0  02:13    0.000846      0.0936       5.842
  HS02004770           JUNCTION     23.62    28.61     0  02:10      0.0778      0.0944       3.389
  HS02004480           JUNCTION      0.00    80.55     0  02:16           0       0.335       0.198
  HS02004479           JUNCTION      0.00    12.35     0  02:18           0      0.0563       1.308
  HS02004478           JUNCTION      0.00   111.82     0  02:17           0       0.605       0.110
  YS02001745           JUNCTION     32.88    32.88     0  03:00       0.416       0.423       0.833
  YS02001748           JUNCTION      0.04    55.48     0  04:15     0.00127       0.437       3.778
  YS02001751           JUNCTION      0.01    76.13     0  04:15     0.00031       0.415       5.641
  YS02001754           JUNCTION      0.26    67.45     0  03:22     0.00733       0.395       6.842
  YS02001762           JUNCTION      0.00    50.75     0  03:27           0       0.421       5.637
  YS02001765           JUNCTION      0.00    54.32     0  02:31           0       0.424       6.289
  YS02001767           JUNCTION      0.54    57.07     0  02:32      0.0151       0.446       8.901
  YS02001770           JUNCTION     43.20    54.60     0  02:32       0.502       0.526       6.752
  YS02001774           JUNCTION      0.00    29.55     0  02:28           0       0.087      43.672
  YS02001779           JUNCTION      0.01    26.92     0  04:44    0.000141       0.037      74.220
  YS02001882           JUNCTION      0.00     2.11     0  02:05           0     0.00314      79.372
  YS02001884           JUNCTION      0.00     6.55     0  02:04           0      0.0128      49.522
  YS02001759           JUNCTION     42.55    90.82     0  02:31       0.472       0.857       2.921
  YS02001887           JUNCTION     57.38    57.38     0  02:41       0.581       0.587       1.119
  YS02001890           JUNCTION      0.00    57.06     0  02:43           0       0.569       1.272
  YS02001898           JUNCTION      0.00    56.83     0  02:46           0       0.559       0.301
  YS02001901           JUNCTION      0.00    56.87     0  02:48           0       0.559       0.879
  YS02001904           JUNCTION      0.00    56.61     0  02:49           0       0.558       0.819
  YS02001907           JUNCTION      0.00   102.10     0  02:55           0        1.19       1.801
  YS02001910           JUNCTION      0.00    46.13     0  03:00           0       0.639       1.484
  YS02001915           JUNCTION     29.74    45.87     0  03:01       0.361       0.642       0.592
  YS02001918           JUNCTION      0.00    16.28     0  03:03           0       0.282       0.277
  YS02001619           JUNCTION     28.82    28.82     0  02:57       0.355       0.355       3.246
  YS02001629           JUNCTION      0.00    42.13     0  04:27           0       0.283      10.424
  YS02001641           JUNCTION      0.00    58.48     0  02:37           0       0.581       3.960
  YS02001644           JUNCTION     31.20    85.81     0  02:55       0.399       0.951       2.897
  YS02001652           JUNCTION      0.00    46.51     0  02:59           0       0.391       6.524
  YS02001655           JUNCTION      0.15    71.97     0  04:20     0.00434       0.414       5.993
  YS02001920           JUNCTION      2.87    16.29     0  03:02      0.0809       0.284       0.583
  YS02001923           JUNCTION      0.04    13.42     0  03:02     0.00106       0.203       0.104
  YS02001926           JUNCTION      0.05    13.41     0  03:01     0.00147       0.203       0.753
  YS02001929           JUNCTION     13.37    13.37     0  03:01       0.202       0.202       0.098
  YS02001658           JUNCTION      0.00    55.32     0  04:21           0       0.436       3.807
  YS02001661           JUNCTION      0.00    40.19     0  02:43           0        0.43       1.721
  YS02001664           JUNCTION     40.19    40.19     0  02:43       0.418       0.418       0.030
  YS02001622           JUNCTION      0.00    33.00     0  04:37           0       0.347       9.321
  YS02001633           JUNCTION     31.76    64.96     0  02:37       0.412       0.641       5.432
  YS02001649           JUNCTION      0.00   130.90     0  02:46           0        1.25       3.213
  YS02001757           JUNCTION      0.00   255.03     0  03:06           0        2.36       4.119
  YS02001895           JUNCTION      0.00    56.87     0  02:47           0       0.562       0.557
  YS02001625           JUNCTION      0.00    47.35     0  04:28           0       0.323      13.720
  YS02163301           JUNCTION      0.00    38.08     0  02:37           0       0.256      10.889
  YS02163601           JUNCTION      0.11    67.95     0  02:36      0.0031       0.607       5.394
  YS02164001           JUNCTION      0.00    63.53     0  02:37           0       0.586       3.915
  YS02001647           JUNCTION      0.00    85.85     0  02:45           0       0.913       3.301
  YSB1154              JUNCTION      6.82     6.82     0  02:13       0.027      0.0284       5.357
  YSB6556              JUNCTION      0.00     6.67     0  02:15           0      0.0294       4.406
  YSB1174              JUNCTION      6.88     6.88     0  02:08      0.0198      0.0207       6.612
  YSB1171              JUNCTION      0.00    12.37     0  02:15           0      0.0557      12.801
  YS02006553           JUNCTION      0.00   102.13     0  02:56           0        1.18       1.175
  YS02006561           JUNCTION      0.00   149.89     0  02:53           0        1.66       0.030
  YS02006556           JUNCTION      0.00   102.17     0  02:56           0        1.18       0.839
  YS02006558           JUNCTION     48.26   149.90     0  02:53       0.529        1.68       0.254
  YS02001783           JUNCTION      0.00   149.89     0  02:54           0        1.66       0.070
  YS02001784           JUNCTION      1.06   150.94     0  02:54      0.0299        1.69       0.118
  YS02001786           JUNCTION      0.06   150.98     0  02:54     0.00159        1.69       0.114
  YS02001788           JUNCTION      0.07   151.04     0  02:55       0.002        1.69       0.065
  YS02001790           JUNCTION      0.15   151.20     0  02:55     0.00437        1.69       0.082
  YS02001791           JUNCTION      0.00   151.19     0  02:55           0        1.69       0.041
  YS02001793           JUNCTION      0.00   186.39     0  03:31           0        1.69       0.022
  WSC                  OUTFALL       0.00   664.46     0  04:06           0        9.72       0.000
  JK-storage           STORAGE       0.00   361.72     0  03:40           0        1.84     -14.965
  CC-storage           STORAGE       0.00   219.17     0  02:57           0        2.26       2.156
  XR-storage           STORAGE     257.37   257.37     0  02:50        6.36        6.96      -2.432
  
  
  **********************
  Node Surcharge Summary
  **********************
  
  Surcharging occurs when water rises above the top of the highest conduit.
  ---------------------------------------------------------------------
                                               Max. Height   Min. Depth
                                   Hours       Above Crown    Below Rim
  Node                 Type      Surcharged         Meters       Meters
  ---------------------------------------------------------------------
  WS02006256           JUNCTION        4.66          2.050        0.000
  YS02001754           JUNCTION        1.59          0.135        1.015
  YS02001762           JUNCTION        3.57          0.393        0.757
  YS02001765           JUNCTION        3.25          0.343        0.757
  YS02001767           JUNCTION        3.01          0.304        0.726
  YS02001770           JUNCTION        2.73          0.268        0.652
  YS02001774           JUNCTION        3.43          0.371        0.679
  YS02001779           JUNCTION        1.29          0.107        0.573
  YS02001759           JUNCTION        3.79          0.429        0.781
  YS02001641           JUNCTION        3.33          0.356        0.744
  YS02001644           JUNCTION        3.36          0.361        0.559
  YS02001652           JUNCTION        1.89          0.167        0.963
  YS02001633           JUNCTION        3.09          0.319        0.741
  YS02001649           JUNCTION        3.63          0.403        0.647
  YS02001757           JUNCTION        4.36          0.532        0.678
  YS02001625           JUNCTION        2.09          0.189        0.591
  YS02163301           JUNCTION        2.79          0.276        0.754
  YS02163601           JUNCTION        3.58          0.395        0.685
  YS02164001           JUNCTION        3.20          0.335        0.765
  YS02001647           JUNCTION        2.04          0.183        0.717
  
  
  *********************
  Node Flooding Summary
  *********************
  
  Flooding refers to all water that overflows a node, whether it ponds or not.
  --------------------------------------------------------------------------
                                                             Total   Maximum
                                 Maximum   Time of Max       Flood    Ponded
                        Hours       Rate    Occurrence      Volume     Depth
  Node                 Flooded       LPS   days hr:min    10^6 ltr    Meters
  --------------------------------------------------------------------------
  WS02006256              0.89    662.94      0  04:59       0.477     0.000
  
  
  **********************
  Storage Volume Summary
  **********************
  
  --------------------------------------------------------------------------------------------------
                         Average     Avg  Evap Exfil       Maximum     Max    Time of Max    Maximum
                          Volume    Pcnt  Pcnt  Pcnt        Volume    Pcnt     Occurrence    Outflow
  Storage Unit           1000 m3    Full  Loss  Loss       1000 m3    Full    days hr:min        LPS
  --------------------------------------------------------------------------------------------------
  JK-storage               0.055      19     0     0         0.240      82       0  03:34     919.33
  CC-storage               0.875       6     0     0         2.208      14       0  07:50       0.00
  XR-storage               0.231      25     0     0         0.650      70       0  07:05     380.00
  
  
  ***********************
  Outfall Loading Summary
  ***********************
  
  ---------------------------------------------------------------------------------------------------------------------------------
                         Flow       Avg       Max       Total         Total         Total         Total         Total         Total
                         Freq      Flow      Flow      Volume           COD            SS            TN            TP         NH4-N
  Outfall Node           Pcnt       LPS       LPS    10^6 ltr            kg            kg            kg            kg            kg
  ---------------------------------------------------------------------------------------------------------------------------------
  WSC                   99.95    354.52    664.46       9.722      1536.524      2460.226       142.457        17.716        88.794
  ---------------------------------------------------------------------------------------------------------------------------------
  System                99.95    354.52    664.46       9.722      1536.524      2460.226       142.457        17.716        88.794
  
  
  ********************
  Link Flow Summary
  ********************
  
  -----------------------------------------------------------------------------
                                 Maximum  Time of Max   Maximum    Max/    Max/
                                  |Flow|   Occurrence   |Veloc|    Full    Full
  Link                 Type          LPS  days hr:min     m/sec    Flow   Depth
  -----------------------------------------------------------------------------
  WS02003066WSF200     CONDUIT    330.68     0  02:54      2.50    0.06    0.17
  WS02006287WS02006284 CONDUIT    111.81     0  02:18      1.31    0.05    0.17
  WS02006284WS02006280 CONDUIT    111.91     0  02:18      1.56    0.05    0.15
  WS02006280WS02006229 CONDUIT    111.91     0  02:18      2.49    0.02    0.11
  WS02006229WS02006228 CONDUIT    338.16     0  02:47      1.02    1.12    0.91
  WS02006256WS02006235 CONDUIT    288.92     0  00:00      4.23    3.06    1.00
  WS02006253WS02006251 CONDUIT     20.35     0  02:18      0.38    0.06    0.20
  WS02006252WS02006251 CONDUIT      0.00     0  00:00      0.00    0.00    0.00
  WS02006251WS02006249 CONDUIT     20.36     0  02:19      0.42    0.06    0.18
  WS02006249WS02006248 CONDUIT     20.28     0  02:20      0.50    0.11    0.16
  WS02006248WS02006247 CONDUIT     20.28     0  02:20      0.50    0.04    0.22
  WS02006247WS02006245 CONDUIT     23.75     0  02:52      0.44    0.19    0.29
  WS02006245WS02006243 CONDUIT     29.91     0  02:52      0.57    0.09    0.34
  WS02006243WS02006242 CONDUIT     53.65     0  06:21      0.51    0.11    0.48
  WS02006242WS02006240 CONDUIT     71.38     0  06:21      0.91    0.28    0.59
  WS02006240WS02006239 CONDUIT     85.95     0  06:20      0.76    0.27    0.61
  WS02006239WS02006238 CONDUIT    121.49     0  00:01      0.87    0.39    0.73
  WS02006238WS02006235 CONDUIT    167.21     0  00:00      1.45    0.37    0.77
  WS02006235WS02006234 CONDUIT    259.44     0  02:47      1.09    2.74    0.72
  WS02006234WS02006232 CONDUIT    259.42     0  02:48      1.39    0.52    0.78
  WS02006232WS02006231 CONDUIT    259.20     0  02:48      0.85    0.54    0.74
  WS02006231WS02006230 CONDUIT    259.34     0  02:48      1.18    3.93    0.56
  WS02006230WS02006229 CONDUIT    269.82     0  02:49      1.03    6.00    0.99
  WS02006228WS02006109 CONDUIT    338.20     0  02:47      0.88    1.48    0.94
  WS02006116WS02004401 CONDUIT    337.74     0  02:50      1.00    0.47    0.68
  WS02006115WS02006116 CONDUIT    338.43     0  02:50      1.02    0.43    0.59
  WS02006113WS02006111 CONDUIT    342.48     0  02:48      2.08    0.41    0.36
  WS02006112WS02006115 CONDUIT    339.73     0  02:48      0.58    0.20    0.72
  WS02006111WS02006112 CONDUIT    339.18     0  02:48      1.60    0.16    0.64
  WS02006110WS02006113 CONDUIT    339.38     0  02:48      0.90    0.31    0.70
  WS02006109WS02006110 CONDUIT    339.45     0  02:47      0.72    0.65    0.89
  WS02004411WS02004412 CONDUIT    332.14     0  02:53      0.74    0.47    0.56
  WS02004401WS02004402 CONDUIT    337.03     0  02:51      1.00    0.40    0.71
  WS02004413WS02003067 CONDUIT    330.65     0  02:54      0.86    0.14    0.49
  WS02004412WS02004413 CONDUIT    331.31     0  02:54      0.64    0.22    0.65
  WS02004410WS02004411 CONDUIT    333.22     0  02:53      0.77    0.46    0.54
  WS02004409WS02004410 CONDUIT    334.48     0  02:52      0.82    0.43    0.52
  WS02004407WS02004409 CONDUIT    335.89     0  02:52      1.29    0.12    0.37
  WS02004406WS02004407 CONDUIT    336.00     0  02:52      0.79    0.15    0.53
  WS02004405WS02004406 CONDUIT    336.21     0  02:51      1.10    0.66    0.83
  WS02004404WS02004405 CONDUIT    336.37     0  02:51      1.15    3.30    0.82
  WS02004403WS02004404 CONDUIT    336.36     0  02:51      0.98    0.24    0.79
  WS02004402WS02004403 CONDUIT    336.60     0  02:51      1.02    0.48    0.74
  WS02004139WS02001211 CONDUIT    380.68     0  05:27      0.90    0.48    0.58
  WS02004138WS02004139 CONDUIT    395.52     0  00:00      3.64    0.08    0.43
  WS02003067WS02003066 CONDUIT    330.70     0  02:54      0.92    0.11    0.36
  WS02001213WS02003059 CONDUIT    389.70     0  05:26      0.89    0.64    0.72
  WS02001212WS02001213 CONDUIT    388.90     0  05:27      1.32    0.60    0.43
  WS02001211WS02001212 CONDUIT    388.45     0  05:27      0.78    0.30    0.62
  WS02003072WS02003073 CONDUIT    662.64     0  04:06      1.53    1.43    0.41
  WS02003069WS02003072 CONDUIT    662.63     0  04:05      1.45    0.32    0.42
  WS02003060WS02003069 CONDUIT    662.32     0  04:04      1.71    0.26    0.37
  WS02003059WS02003060 CONDUIT    390.85     0  05:26      0.95    0.26    0.59
  HS02004901HS02004770 CONDUIT      5.30     0  02:15      0.03    0.02    0.25
  HS02004876HS02004881 CONDUIT     17.67     0  02:17      0.36    0.19    0.07
  HS02004870HS02004876 CONDUIT     13.92     0  02:17      0.25    0.01    0.08
  HS02004842HS02004848 CONDUIT      3.29     0  02:26      0.02    0.00    0.26
  HS02004837HS02004842 CONDUIT      4.48     0  00:03      0.42    0.00    0.27
  HS02004830HS02004837 CONDUIT     16.15     0  02:15      0.37    0.02    0.06
  HS02004824HS02004830 CONDUIT     16.30     0  02:16      0.42    0.02    0.06
  HS02004817HS02004824 CONDUIT     23.64     0  02:18      0.17    0.01    0.36
  HS02004770HS02004777 CONDUIT     27.36     0  02:13      0.15    0.05    0.27
  HS02004799HS02004480 CONDUIT     68.36     0  02:16      0.42    0.09    0.23
  HS02004792HS02004799 CONDUIT     62.53     0  02:15      0.49    0.04    0.18
  HS02004788HS02004792 CONDUIT     36.47     0  02:17      0.66    0.02    0.08
  HS02004785HS02004788 CONDUIT     26.84     0  02:17      0.38    0.20    0.10
  HS02004777HS02004785 CONDUIT     26.82     0  02:15      0.18    0.03    0.21
  HS02004480HS02004478 CONDUIT     80.52     0  02:17      0.73    0.34    0.16
  HS02004479HS02004480 CONDUIT     12.46     0  02:19      0.15    0.01    0.23
  HS02004862HS02004870 CONDUIT      9.99     0  02:18      0.35    0.01    0.04
  HS02004848HS02004852 CONDUIT      3.63     0  02:17      0.23    0.00    0.02
  HS02004856HS02004862 CONDUIT      6.52     0  02:18      0.25    0.01    0.04
  HS02004852HS02004856 CONDUIT      3.60     0  02:19      0.07    0.00    0.08
  HS02004802HS02004478 CONDUIT     31.66     0  02:20      0.22    0.03    0.20
  HS02004478WS02006287 CONDUIT    111.82     0  02:18      1.00    0.03    0.12
  HS02004817HS02004807 CONDUIT     24.42     0  02:21      0.08    0.01    0.46
  HS02004807HS02004802 CONDUIT     31.53     0  02:19      0.18    0.06    0.25
  YS02001759YS02001757 CONDUIT     89.50     0  02:58      0.14    0.06    1.00
  YS02001762YS02001759 CONDUIT     49.77     0  02:31      0.17    0.06    1.00
  YS02001765YS02001762 CONDUIT     50.75     0  03:27      0.23    0.05    1.00
  YS02001770YS02001767 CONDUIT     56.54     0  02:32      0.30    0.22    1.00
  YS02001774YS02001770 CONDUIT     29.55     0  02:28      0.12    0.02    1.00
  YS02001779YS02001774 CONDUIT     26.92     0  04:44      0.06    0.01    1.00
  YS02001649YS02001757 CONDUIT    130.38     0  02:54      0.18    0.08    1.00
  YS02001767YS02001765 CONDUIT     54.32     0  02:31      0.26    0.07    1.00
  YS02006561YS02001783 CONDUIT    149.89     0  02:54      1.47    0.08    0.26
  YS02001783YS02001784 CONDUIT    149.88     0  02:54      0.97    0.21    0.35
  YS02001784YS02001785 CONDUIT    150.92     0  02:54      1.00    0.35    0.34
  YS02001788YS02001790 CONDUIT    151.04     0  02:55      1.54    0.11    0.25
  YS02001790YS02001791 CONDUIT    151.19     0  02:55      1.76    0.16    0.23
  YS02001791YS02001793 CONDUIT    151.18     0  02:55      3.51    0.06    0.56
  YS02001910YS02001907 CONDUIT     46.20     0  03:02      0.49    0.03    0.60
  YS02001786YS02001788 CONDUIT    150.97     0  02:55      1.39    0.29    0.27
  YS02001915YS02001910 CONDUIT     46.13     0  03:00      0.44    0.02    0.39
  YS02001918YS02001915 CONDUIT     16.27     0  03:04      0.44    0.01    0.18
  YS02001923YS02001920 CONDUIT     13.42     0  03:02      0.30    0.01    0.11
  YS02001926YS02001923 CONDUIT     13.38     0  03:02      0.36    0.02    0.09
  YS02001929YS02001926 CONDUIT     13.36     0  03:01      0.37    0.01    0.09
  YS02001920YS02001918 CONDUIT     16.28     0  03:03      0.33    0.02    0.11
  YS02001629YS02163301 CONDUIT     38.08     0  02:37      0.08    0.05    1.00
  YS02001619YS02001622 CONDUIT     33.00     0  04:37      0.54    0.05    0.88
  YS02001622YS02001625 CONDUIT     33.03     0  06:23      0.17    0.02    0.94
  YS02001625YS02001629 CONDUIT     42.13     0  04:27      0.17    0.02    0.93
  YS02163301YS02001633 CONDUIT     34.70     0  02:37      0.08    0.03    1.00
  YS02163601YS02164001 CONDUIT     63.53     0  02:37      0.11    0.06    1.00
  YS02164001YS02001641 CONDUIT     58.48     0  02:37      0.11    0.08    1.00
  YS02001641YS02001644 CONDUIT     54.67     0  02:55      0.12    0.18    1.00
  YS02001647YS02001649 CONDUIT     87.33     0  02:46      0.16    0.05    1.00
  YS02006553YS02006556 CONDUIT    102.17     0  02:56      0.18    0.09    0.69
  YS02006556YS02006558 CONDUIT    102.16     0  02:57      0.17    0.08    0.72
  YSB6556YSB1171       CONDUIT      6.75     0  02:18      0.04    0.01    0.50
  YS02001907YS02006553 CONDUIT    102.13     0  02:56      0.14    0.12    0.78
  YS02006558YS02006561 CONDUIT    149.89     0  02:53      1.89    0.33    0.32
  YS02001633YS02163601 CONDUIT     67.84     0  02:36      0.12    0.07    1.00
  YS02001644YS02001647 CONDUIT     85.85     0  02:45      0.17    0.05    1.00
  YS02001745YS02001748 CONDUIT     42.21     0  06:42      1.14    0.02    0.46
  YS02001748YS02001751 CONDUIT     76.12     0  04:15      0.92    0.04    0.81
  YS02001751YS02001754 CONDUIT     53.98     0  03:24      0.85    0.03    0.96
  YS02001754YS02001757 CONDUIT     68.41     0  03:27      0.33    0.03    1.00
  YS02001882YS02001884 CONDUIT      2.11     0  02:05      0.07    0.00    0.33
  YS02001884YS02001887 CONDUIT      6.55     0  02:04      0.05    0.01    0.42
  YS02001890YS02001895 CONDUIT     56.87     0  02:47      0.20    0.03    0.39
  YS02001895YS02001898 CONDUIT     56.83     0  02:46      0.43    0.10    0.26
  YS02001898YS02001901 CONDUIT     56.87     0  02:48      0.25    0.04    0.34
  YS02001901YS02001904 CONDUIT     56.61     0  02:49      0.21    0.09    0.39
  YS02001904YS02001907 CONDUIT     56.71     0  02:49      0.13    0.02    0.55
  YS02001887YS02001890 CONDUIT     57.06     0  02:43      0.16    0.10    0.48
  YS02001652YS02001649 CONDUIT     65.19     0  04:19      0.26    0.03    1.00
  YS02001655YS02001652 CONDUIT     46.51     0  02:59      0.91    0.02    0.97
  YS02001658YS02001655 CONDUIT     71.81     0  04:20      1.05    0.03    0.80
  YS02001661YS02001658 CONDUIT     41.31     0  06:38      1.16    0.02    0.48
  YS02001664YS02001661 CONDUIT     40.19     0  02:43      0.77    0.01    0.21
  YSB1154YSB6556       CONDUIT      6.67     0  02:15      0.19    0.01    0.39
  YSB1174YSB1171       CONDUIT      6.21     0  02:11      0.03    0.01    0.50
  YSB1171HS02004479    CONDUIT     12.35     0  02:18      0.54    0.01    0.38
  HS02004881HS02006253 CONDUIT     19.83     0  02:17      1.28    0.00    0.02
  YS02001793JiankangQianchi CONDUIT    361.72     0  03:40     10.55    0.03    0.89
  YS02001757CaochengTiaoxuchi CONDUIT    219.17     0  02:57      0.56    0.10    0.90
  WSF200WS02003060     CONDUIT    331.07     0  02:55      1.73    0.07    0.26
  1                    CONDUIT    664.46     0  04:06      2.97    0.23    0.33
  CC-Pump-1            PUMP         0.00     0  00:00              0.00
  CC-Pump-2            PUMP         0.00     0  00:00              0.00
  JK-Pump-1            PUMP       300.00     0  00:00              1.00
  JK-Pump-2            PUMP       638.76     0  04:59              0.94
  XR-Pump-1            PUMP        95.00     0  00:00              1.00
  XR-Pump-2            PUMP        95.00     0  00:00              1.00
  XR-Pump-3            PUMP        95.00     0  00:00              1.00
  XR-Pump-4            PUMP        95.00     0  00:00              1.00
  
  
  ***************************
  Flow Classification Summary
  ***************************
  
  -------------------------------------------------------------------------------------
                      Adjusted    ---------- Fraction of Time in Flow Class ---------- 
                       /Actual         Up    Down  Sub   Sup   Up    Down  Norm  Inlet 
  Conduit               Length    Dry  Dry   Dry   Crit  Crit  Crit  Crit  Ltd   Ctrl  
  -------------------------------------------------------------------------------------
  WS02003066WSF200        1.00   0.03  0.06  0.00  0.00  0.91  0.00  0.00  0.90  0.00
  WS02006287WS02006284    1.00   0.09  0.06  0.00  0.60  0.25  0.00  0.00  0.81  0.00
  WS02006284WS02006280    1.00   0.12  0.00  0.00  0.00  0.00  0.00  0.88  0.00  0.00
  WS02006280WS02006229    1.00   0.12  0.00  0.00  0.00  0.00  0.00  0.88  0.00  0.00
  WS02006229WS02006228    1.00   0.00  0.00  0.00  0.99  0.00  0.00  0.01  0.00  0.00
  WS02006256WS02006235    1.00   0.00  0.00  0.00  0.99  0.01  0.00  0.00  0.00  0.00
  WS02006253WS02006251    1.00   0.05  0.05  0.00  0.89  0.00  0.01  0.00  0.00  0.00
  WS02006252WS02006251    1.00   1.00  0.00  0.00  0.00  0.00  0.00  0.00  0.00  0.00
  WS02006251WS02006249    1.00   0.00  0.00  0.00  1.00  0.00  0.00  0.00  0.98  0.00
  WS02006249WS02006248    1.00   0.00  0.02  0.00  0.16  0.00  0.81  0.00  0.00  0.00
  WS02006248WS02006247    1.00   0.02  0.00  0.00  0.98  0.00  0.00  0.00  0.77  0.00
  WS02006247WS02006245    1.00   0.01  0.00  0.00  0.99  0.00  0.00  0.00  0.00  0.00
  WS02006245WS02006243    1.00   0.01  0.00  0.00  0.79  0.00  0.00  0.20  0.06  0.00
  WS02006243WS02006242    1.00   0.01  0.00  0.00  0.99  0.00  0.00  0.00  0.73  0.00
  WS02006242WS02006240    1.00   0.00  0.00  0.00  1.00  0.00  0.00  0.00  0.00  0.00
  WS02006240WS02006239    1.00   0.00  0.00  0.00  0.54  0.00  0.00  0.45  0.03  0.00
  WS02006239WS02006238    1.00   0.00  0.00  0.00  1.00  0.00  0.00  0.00  0.42  0.00
  WS02006238WS02006235    1.00   0.00  0.00  0.00  1.00  0.00  0.00  0.00  0.00  0.00
  WS02006235WS02006234    1.00   0.00  0.00  0.00  0.69  0.00  0.31  0.00  0.00  0.00
  WS02006234WS02006232    1.00   0.00  0.00  0.00  1.00  0.00  0.00  0.00  0.26  0.00
  WS02006232WS02006231    1.00   0.00  0.00  0.00  0.99  0.00  0.01  0.00  0.00  0.00
  WS02006231WS02006230    1.00   0.00  0.00  0.00  0.07  0.00  0.93  0.00  0.00  0.00
  WS02006230WS02006229    1.00   0.00  0.00  0.00  0.99  0.00  0.00  0.01  0.01  0.00
  WS02006228WS02006109    1.00   0.00  0.00  0.00  0.99  0.00  0.00  0.01  0.00  0.00
  WS02006116WS02004401    1.00   0.03  0.00  0.00  0.97  0.00  0.00  0.00  0.00  0.00
  WS02006115WS02006116    1.00   0.03  0.00  0.00  0.97  0.00  0.00  0.01  0.00  0.00
  WS02006113WS02006111    1.00   0.02  0.00  0.00  0.00  0.98  0.00  0.00  0.19  0.00
  WS02006112WS02006115    1.00   0.02  0.01  0.00  0.97  0.00  0.00  0.00  0.00  0.00
  WS02006111WS02006112    1.00   0.02  0.00  0.00  0.97  0.00  0.00  0.00  0.98  0.00
  WS02006110WS02006113    1.00   0.01  0.01  0.00  0.98  0.00  0.00  0.00  0.00  0.00
  WS02006109WS02006110    1.00   0.00  0.01  0.00  0.98  0.00  0.01  0.00  0.00  0.00
  WS02004411WS02004412    1.00   0.05  0.00  0.00  0.95  0.00  0.00  0.00  0.00  0.00
  WS02004401WS02004402    1.00   0.03  0.00  0.00  0.97  0.00  0.00  0.00  0.00  0.00
  WS02004413WS02003067    1.00   0.05  0.02  0.00  0.00  0.00  0.92  0.00  0.00  0.00
  WS02004412WS02004413    1.00   0.05  0.00  0.00  0.95  0.00  0.00  0.00  0.01  0.00
  WS02004410WS02004411    1.00   0.05  0.00  0.00  0.95  0.00  0.00  0.00  0.00  0.00
  WS02004409WS02004410    1.00   0.05  0.00  0.00  0.95  0.00  0.00  0.00  0.02  0.00
  WS02004407WS02004409    1.00   0.05  0.00  0.00  0.95  0.01  0.00  0.00  0.95  0.00
  WS02004406WS02004407    1.00   0.00  0.05  0.00  0.95  0.00  0.00  0.00  0.00  0.00
  WS02004405WS02004406    1.00   0.00  0.00  0.00  1.00  0.00  0.00  0.00  0.00  0.00
  WS02004404WS02004405    1.00   0.00  0.00  0.00  1.00  0.00  0.00  0.00  0.00  0.00
  WS02004403WS02004404    1.00   0.00  0.03  0.00  0.97  0.00  0.00  0.00  0.00  0.00
  WS02004402WS02004403    1.00   0.03  0.00  0.00  0.97  0.00  0.00  0.00  0.00  0.00
  WS02004139WS02001211    1.00   0.00  0.00  0.00  0.99  0.00  0.00  0.00  0.00  0.00
  WS02004138WS02004139    1.00   0.00  0.02  0.00  0.97  0.01  0.00  0.00  1.00  0.00
  WS02003067WS02003066    1.00   0.08  0.01  0.00  0.91  0.00  0.00  0.00  0.00  0.00
  WS02001213WS02003059    1.00   0.00  0.00  0.00  0.99  0.00  0.00  0.00  0.00  0.00
  WS02001212WS02001213    1.00   0.00  0.00  0.00  0.53  0.00  0.46  0.00  0.00  0.00
  WS02001211WS02001212    1.00   0.00  0.00  0.00  1.00  0.00  0.00  0.00  0.00  0.00
  WS02003072WS02003073    1.00   0.00  0.00  0.00  0.00  0.00  0.00  1.00  0.00  0.00
  WS02003069WS02003072    1.00   0.00  0.00  0.00  0.99  0.01  0.00  0.00  0.44  0.00
  WS02003060WS02003069    1.00   0.00  0.00  0.00  0.94  0.06  0.00  0.00  0.36  0.00
  WS02003059WS02003060    1.00   0.00  0.00  0.00  1.00  0.00  0.00  0.00  0.01  0.00
  HS02004901HS02004770    1.00   0.11  0.00  0.00  0.88  0.00  0.00  0.00  0.02  0.00
  HS02004876HS02004881    1.00   0.02  0.00  0.00  0.98  0.00  0.00  0.00  0.00  0.00
  HS02004870HS02004876    1.00   0.01  0.00  0.00  0.98  0.01  0.00  0.00  0.95  0.00
  HS02004842HS02004848    1.00   0.00  0.12  0.00  0.88  0.00  0.00  0.00  0.70  0.00
  HS02004837HS02004842    1.00   0.00  0.00  0.00  0.99  0.01  0.00  0.00  0.11  0.00
  HS02004830HS02004837    1.00   0.00  0.00  0.00  1.00  0.00  0.00  0.00  0.99  0.00
  HS02004824HS02004830    1.00   0.00  0.00  0.00  1.00  0.00  0.00  0.00  0.00  0.00
  HS02004817HS02004824    1.00   0.00  0.00  0.00  1.00  0.00  0.00  0.00  1.00  0.00
  HS02004770HS02004777    1.00   0.00  0.12  0.00  0.88  0.00  0.00  0.00  0.07  0.00
  HS02004799HS02004480    1.00   0.00  0.04  0.00  0.83  0.00  0.12  0.00  0.00  0.00
  HS02004792HS02004799    1.00   0.00  0.00  0.00  0.99  0.01  0.00  0.00  0.98  0.00
  HS02004788HS02004792    1.00   0.00  0.00  0.00  0.99  0.01  0.00  0.00  0.98  0.00
  HS02004785HS02004788    1.00   0.00  0.00  0.00  1.00  0.00  0.00  0.00  0.00  0.00
  HS02004777HS02004785    1.00   0.00  0.00  0.00  1.00  0.00  0.00  0.00  0.20  0.00
  HS02004480HS02004478    1.00   0.13  0.00  0.00  0.61  0.00  0.00  0.25  0.00  0.00
  HS02004479HS02004480    1.00   0.04  0.00  0.00  0.96  0.00  0.00  0.00  0.16  0.00
  HS02004862HS02004870    1.00   0.00  0.00  0.00  1.00  0.00  0.00  0.00  0.05  0.00
  HS02004848HS02004852    1.00   0.12  0.00  0.00  0.88  0.00  0.00  0.00  0.71  0.00
  HS02004856HS02004862    1.00   0.00  0.21  0.00  0.79  0.00  0.00  0.00  0.74  0.00
  HS02004852HS02004856    1.00   0.11  0.03  0.00  0.85  0.00  0.00  0.00  0.82  0.00
  HS02004802HS02004478    1.00   0.12  0.03  0.00  0.85  0.00  0.00  0.00  0.00  0.00
  HS02004478WS02006287    1.00   0.15  0.00  0.00  0.84  0.00  0.00  0.00  0.81  0.00
  HS02004817HS02004807    1.00   0.00  0.12  0.00  0.88  0.00  0.00  0.00  0.00  0.00
  HS02004807HS02004802    1.00   0.12  0.00  0.00  0.87  0.00  0.00  0.01  0.01  0.00
  YS02001759YS02001757    1.00   0.00  0.00  0.00  1.00  0.00  0.00  0.00  0.17  0.00
  YS02001762YS02001759    1.00   0.00  0.00  0.00  1.00  0.00  0.00  0.00  0.05  0.00
  YS02001765YS02001762    1.00   0.00  0.00  0.00  1.00  0.00  0.00  0.00  0.22  0.00
  YS02001770YS02001767    1.00   0.00  0.00  0.00  1.00  0.00  0.00  0.00  0.00  0.00
  YS02001774YS02001770    1.00   0.00  0.15  0.00  0.85  0.00  0.00  0.00  0.06  0.00
  YS02001779YS02001774    1.00   0.00  0.00  0.00  1.00  0.00  0.00  0.00  0.27  0.00
  YS02001649YS02001757    1.00   0.00  0.00  0.00  1.00  0.00  0.00  0.00  0.19  0.00
  YS02001767YS02001765    1.00   0.00  0.00  0.00  1.00  0.00  0.00  0.00  0.01  0.00
  YS02006561YS02001783    1.00   0.21  0.00  0.00  0.00  0.78  0.00  0.00  0.73  0.00
  YS02001783YS02001784    1.00   0.00  0.22  0.00  0.78  0.00  0.00  0.00  0.14  0.00
  YS02001784YS02001785    1.00   0.00  0.00  0.00  1.00  0.00  0.00  0.00  0.25  0.00
  YS02001788YS02001790    1.00   0.00  0.00  0.00  0.23  0.77  0.00  0.00  0.99  0.00
  YS02001790YS02001791    1.00   0.00  0.00  0.00  0.02  0.98  0.00  0.00  0.34  0.00
  YS02001791YS02001793    1.00   0.00  0.00  0.00  0.03  0.97  0.00  0.00  0.03  0.00
  YS02001910YS02001907    1.00   0.00  0.00  0.00  0.96  0.00  0.00  0.03  0.13  0.00
  YS02001786YS02001788    1.00   0.00  0.00  0.00  0.27  0.73  0.00  0.00  0.00  0.00
  YS02001915YS02001910    1.00   0.00  0.00  0.00  0.98  0.02  0.00  0.00  0.24  0.00
  YS02001918YS02001915    1.00   0.00  0.01  0.00  0.97  0.02  0.00  0.00  0.81  0.00
  YS02001923YS02001920    1.00   0.00  0.00  0.00  1.00  0.00  0.00  0.00  1.00  0.00
  YS02001926YS02001923    1.00   0.00  0.07  0.00  0.00  0.00  0.93  0.00  0.00  0.00
  YS02001929YS02001926    1.00   0.00  0.12  0.00  0.88  0.00  0.00  0.00  0.86  0.00
  YS02001920YS02001918    1.00   0.00  0.01  0.00  0.99  0.00  0.00  0.00  0.00  0.00
  YS02001629YS02163301    1.00   0.18  0.01  0.00  0.80  0.00  0.00  0.00  0.00  0.00
  YS02001619YS02001622    1.00   0.11  0.00  0.00  0.89  0.00  0.00  0.00  0.00  0.00
  YS02001622YS02001625    1.00   0.12  0.00  0.00  0.88  0.00  0.00  0.00  0.13  0.00
  YS02001625YS02001629    1.00   0.12  0.11  0.00  0.72  0.00  0.06  0.00  0.00  0.00
  YS02163301YS02001633    1.00   0.00  0.18  0.00  0.82  0.00  0.00  0.00  0.00  0.00
  YS02163601YS02164001    1.00   0.00  0.08  0.00  0.92  0.00  0.00  0.00  0.00  0.00
  YS02164001YS02001641    1.00   0.01  0.07  0.00  0.92  0.00  0.00  0.00  0.07  0.00
  YS02001641YS02001644    1.00   0.00  0.01  0.00  0.99  0.00  0.00  0.00  0.00  0.00
  YS02001647YS02001649    1.00   0.00  0.21  0.00  0.79  0.00  0.00  0.00  0.01  0.00
  YS02006553YS02006556    1.00   0.02  0.00  0.00  0.98  0.00  0.00  0.00  0.03  0.00
  YS02006556YS02006558    1.00   0.00  0.00  0.00  1.00  0.00  0.00  0.00  0.00  0.00
  YSB6556YSB1171          1.00   0.05  0.06  0.00  0.89  0.00  0.00  0.00  0.00  0.00
  YS02001907YS02006553    1.00   0.00  0.03  0.00  0.97  0.00  0.00  0.00  0.00  0.00
  YS02006558YS02006561    1.00   0.21  0.00  0.00  0.00  0.78  0.00  0.00  0.72  0.00
  YS02001633YS02163601    1.00   0.00  0.01  0.00  0.99  0.00  0.00  0.00  0.20  0.00
  YS02001644YS02001647    1.00   0.00  0.21  0.00  0.79  0.00  0.00  0.00  0.00  0.00
  YS02001745YS02001748    1.00   0.00  0.00  0.00  0.54  0.03  0.00  0.44  0.28  0.00
  YS02001748YS02001751    1.00   0.00  0.00  0.00  0.90  0.10  0.00  0.00  0.28  0.00
  YS02001751YS02001754    1.00   0.00  0.00  0.00  0.76  0.00  0.00  0.24  0.03  0.00
  YS02001754YS02001757    1.00   0.00  0.00  0.00  0.99  0.01  0.00  0.00  0.27  0.00
  YS02001882YS02001884    1.00   0.17  0.01  0.00  0.82  0.00  0.00  0.00  0.00  0.00
  YS02001884YS02001887    1.00   0.06  0.04  0.00  0.90  0.00  0.00  0.00  0.00  0.00
  YS02001890YS02001895    1.00   0.00  0.19  0.00  0.81  0.00  0.00  0.00  0.00  0.00
  YS02001895YS02001898    1.00   0.19  0.00  0.00  0.77  0.00  0.03  0.00  0.00  0.00
  YS02001898YS02001901    1.00   0.18  0.02  0.00  0.80  0.00  0.00  0.00  0.02  0.00
  YS02001901YS02001904    1.00   0.18  0.00  0.00  0.82  0.00  0.00  0.00  0.00  0.00
  YS02001904YS02001907    1.00   0.00  0.18  0.00  0.82  0.00  0.00  0.00  0.00  0.00
  YS02001887YS02001890    1.00   0.00  0.00  0.00  0.96  0.00  0.03  0.00  0.00  0.00
  YS02001652YS02001649    1.00   0.00  0.00  0.00  1.00  0.00  0.00  0.00  0.26  0.00
  YS02001655YS02001652    1.00   0.00  0.00  0.00  0.76  0.01  0.00  0.23  0.03  0.00
  YS02001658YS02001655    1.00   0.00  0.16  0.00  0.72  0.12  0.00  0.00  0.21  0.00
  YS02001661YS02001658    1.00   0.16  0.00  0.00  0.54  0.30  0.00  0.00  0.39  0.00
  YS02001664YS02001661    1.00   0.11  0.00  0.00  0.89  0.00  0.00  0.00  0.86  0.00
  YSB1154YSB6556          1.00   0.11  0.00  0.00  0.89  0.00  0.00  0.00  0.02  0.00
  YSB1174YSB1171          1.00   0.05  0.03  0.00  0.91  0.00  0.00  0.00  0.00  0.00
  YSB1171HS02004479       1.00   0.05  0.00  0.00  0.94  0.00  0.00  0.01  0.13  0.00
  HS02004881HS02006253    1.00   0.06  0.00  0.00  0.00  0.00  0.00  0.94  0.00  0.00
  YS02001793JiankangQianchi    1.00   0.00  0.00  0.00  0.71  0.29  0.00  0.00  0.78  0.00
  YS02001757CaochengTiaoxuchi    1.00   0.00  0.28  0.00  0.71  0.00  0.00  0.00  0.00  0.00
  WSF200WS02003060        1.00   0.00  0.03  0.00  0.81  0.16  0.00  0.00  0.85  0.00
  1                       1.00   0.00  0.00  0.00  0.00  1.00  0.00  0.00  0.47  0.00
  
  
  *************************
  Conduit Surcharge Summary
  *************************
  
  ----------------------------------------------------------------------------
                                                           Hours        Hours 
                         --------- Hours Full --------   Above Full   Capacity
  Conduit                Both Ends  Upstream  Dnstream   Normal Flow   Limited
  ----------------------------------------------------------------------------
  WS02006229WS02006228        0.01      0.01      0.01      0.22         0.01
  WS02006256WS02006235        2.18      2.18      4.65      2.06         0.01
  WS02006235WS02006234        0.01      0.01      0.01      2.08         0.01
  WS02006231WS02006230        0.01      0.01      0.01      2.31         0.01
  WS02006230WS02006229        0.01      0.14      0.01      2.73         0.01
  WS02006228WS02006109        0.01      0.01      0.01      0.91         0.01
  WS02006111WS02006112        0.01      0.01      0.24      0.01         0.01
  WS02004404WS02004405        0.01      0.01      0.01      2.56         0.01
  WS02003072WS02003073        0.01      0.01      0.01      2.00         0.01
  YS02001759YS02001757        3.79      3.79      4.36      0.01         0.01
  YS02001762YS02001759        3.57      3.57      3.79      0.01         0.01
  YS02001765YS02001762        3.24      3.24      3.57      0.01         0.01
  YS02001770YS02001767        2.96      2.96      3.01      0.01         0.01
  YS02001774YS02001770        2.73      2.73      3.43      0.01         0.01
  YS02001779YS02001774        1.29      1.29      3.43      0.01         0.01
  YS02001649YS02001757        3.63      3.63      4.36      0.01         0.01
  YS02001767YS02001765        3.01      3.01      3.24      0.01         0.01
  YS02001629YS02163301        2.55      2.55      2.79      0.01         0.01
  YS02001622YS02001625        0.01      0.01      2.09      0.01         0.01
  YS02001625YS02001629        0.01      0.01      2.09      0.01         0.01
  YS02163301YS02001633        2.79      2.79      3.23      0.01         0.01
  YS02163601YS02164001        3.20      3.20      3.58      0.01         0.01
  YS02164001YS02001641        3.20      3.20      3.33      0.01         0.01
  YS02001641YS02001644        3.33      3.33      3.36      0.01         0.03
  YS02001647YS02001649        2.04      2.04      3.63      0.01         0.01
  YS02001633YS02163601        3.09      3.09      3.58      0.01         0.01
  YS02001644YS02001647        2.04      2.04      3.36      0.01         0.01
  YS02001751YS02001754        0.01      0.01      1.59      0.01         0.01
  YS02001754YS02001757        2.05      2.05      4.36      0.01         0.01
  YS02001652YS02001649        2.16      2.16      3.63      0.01         0.01
  YS02001655YS02001652        0.01      0.01      1.89      0.01         0.01
  YS02001793JiankangQianchi        0.01      0.01      3.30      0.01         0.01
  YS02001757CaochengTiaoxuchi        0.01      0.01      4.36      0.01         0.01
  
  
  ***************
  Pumping Summary
  ***************
  
  ---------------------------------------------------------------------------------------------------------
                                                  Min       Avg       Max     Total     Power    % Time Off
                        Percent   Number of      Flow      Flow      Flow    Volume     Usage    Pump Curve
  Pump                 Utilized   Start-Ups       LPS       LPS       LPS  10^6 ltr     Kw-hr    Low   High
  ---------------------------------------------------------------------------------------------------------
  CC-Pump-1                0.00           0      0.00      0.00      0.00     0.000      0.00    0.0    0.0
  CC-Pump-2                0.00           0      0.00      0.00      0.00     0.000      0.00    0.0    0.0
  JK-Pump-1               31.93           5      0.00    137.94    300.00     1.217     22.17    0.0    0.0
  JK-Pump-2               19.16           4      0.00    146.88    638.76     0.792     15.52    0.0   90.5
  XR-Pump-1               82.96           4      0.00     86.79     95.00     2.052     42.10    0.0    0.0
  XR-Pump-2               74.45           6      0.00     79.55     95.00     1.653     33.36    0.0    0.0
  XR-Pump-3               72.33           6      0.00     79.18     95.00     1.596     31.91    0.0    0.0
  XR-Pump-4               72.33           6      0.00     79.18     95.00     1.596     31.91    0.0    0.0
  
  
  ***************************
  Link Pollutant Load Summary
  ***************************
  
  ------------------------------------------------------------------------------------------
                                 COD            SS            TN            TP         NH4-N
  Link                            kg            kg            kg            kg            kg
  ------------------------------------------------------------------------------------------
  WS02003066WSF200           126.341       204.205         7.772         0.898         4.671
  WS02006287WS02006284        77.849       127.349         5.690         0.683         3.478
  WS02006284WS02006280        78.272       128.027         5.730         0.688         3.503
  WS02006280WS02006229        78.251       127.993         5.728         0.687         3.502
  WS02006229WS02006228       126.958       204.961         7.894         0.913         4.750
  WS02006256WS02006235        43.542        68.090         2.007         0.212         1.163
  WS02006253WS02006251         6.050        10.398         0.222         0.021         0.123
  WS02006252WS02006251         0.000         0.000         0.000         0.000         0.000
  WS02006251WS02006249         6.612        11.302         0.275         0.028         0.156
  WS02006249WS02006248         6.625        11.315         0.277         0.028         0.157
  WS02006248WS02006247         6.708        11.449         0.279         0.028         0.158
  WS02006247WS02006245         7.147        12.133         0.300         0.031         0.170
  WS02006245WS02006243         7.766        13.101         0.323         0.033         0.183
  WS02006243WS02006242         9.674        16.136         0.398         0.040         0.226
  WS02006242WS02006240        13.273        21.793         0.553         0.056         0.315
  WS02006240WS02006239        16.885        27.413         0.727         0.075         0.416
  WS02006239WS02006238        21.018        33.789         0.939         0.098         0.541
  WS02006238WS02006235        23.683        37.887         1.069         0.112         0.617
  WS02006235WS02006234        49.306        77.953         2.228         0.234         1.287
  WS02006234WS02006232        49.630        78.460         2.243         0.236         1.296
  WS02006232WS02006231        49.374        78.058         2.230         0.234         1.288
  WS02006231WS02006230        48.998        77.460         2.208         0.232         1.275
  WS02006230WS02006229        49.370        78.031         2.228         0.234         1.287
  WS02006228WS02006109       126.152       203.676         7.807         0.902         4.696
  WS02006116WS02004401       130.173       210.232         8.103         0.938         4.877
  WS02006115WS02006116       131.045       211.612         8.187         0.949         4.929
  WS02006113WS02006111       132.481       213.807         8.413         0.978         5.074
  WS02006112WS02006115       131.941       213.051         8.264         0.958         4.977
  WS02006111WS02006112       131.947       212.954         8.359         0.971         5.040
  WS02006110WS02006113       132.798       214.317         8.440         0.982         5.091
  WS02006109WS02006110       133.869       216.037         8.536         0.993         5.151
  WS02004411WS02004412       127.331       205.797         7.852         0.908         4.721
  WS02004401WS02004402       129.207       208.689         8.019         0.928         4.825
  WS02004413WS02003067       126.467       204.385         7.782         0.899         4.678
  WS02004412WS02004413       126.958       205.211         7.822         0.904         4.703
  WS02004410WS02004411       127.511       206.072         7.868         0.909         4.731
  WS02004409WS02004410       127.700       206.372         7.884         0.911         4.741
  WS02004407WS02004409       127.666       206.300         7.884         0.911         4.741
  WS02004406WS02004407       127.445       205.926         7.870         0.910         4.732
  WS02004405WS02004406       128.205       207.146         7.935         0.918         4.773
  WS02004404WS02004405       128.418       207.446         7.956         0.920         4.786
  WS02004403WS02004404       127.732       206.344         7.887         0.912         4.743
  WS02004402WS02004403       128.454       207.499         7.949         0.919         4.781
  WS02004139WS02001211      1278.920      2045.989       121.986        15.229        76.181
  WS02004138WS02004139      1286.575      2058.233       122.712        15.319        76.634
  WS02003067WS02003066       126.340       204.206         7.772         0.898         4.672
  WS02001213WS02003059      1308.274      2092.964       124.822        15.583        77.955
  WS02001212WS02001213      1315.431      2104.412       125.503        15.668        78.380
  WS02001211WS02001212      1320.940      2113.225       126.028        15.734        78.708
  WS02003072WS02003073      1529.109      2448.386       141.681        17.617        88.307
  WS02003069WS02003072      1536.282      2459.848       142.385        17.706        88.747
  WS02003060WS02003069      1539.496      2464.986       142.688        17.743        88.936
  WS02003059WS02003060      1302.922      2084.404       124.315        15.520        77.638
  HS02004901HS02004770         1.149         1.967         0.023         0.002         0.011
  HS02004876HS02004881         5.199         8.884         0.209         0.021         0.117
  HS02004870HS02004876         4.228         7.188         0.196         0.020         0.112
  HS02004842HS02004848         0.636         1.050         0.015         0.001         0.007
  HS02004837HS02004842         5.282         8.477         0.477         0.059         0.296
  HS02004830HS02004837        45.379        72.924         4.167         0.518         2.597
  HS02004824HS02004830        46.130        74.126         4.239         0.527         2.642
  HS02004817HS02004824        48.754        78.563         4.323         0.534         2.687
  HS02004770HS02004777         4.530         7.810         0.105         0.007         0.047
  HS02004799HS02004480        27.420        45.173         1.651         0.190         0.984
  HS02004792HS02004799        26.470        43.376         1.680         0.196         1.007
  HS02004788HS02004792        19.239        31.511         1.391         0.166         0.845
  HS02004785HS02004788         6.016        10.198         0.256         0.026         0.142
  HS02004777HS02004785         5.553         9.455         0.213         0.020         0.116
  HS02004480HS02004478        30.481        50.631         1.660         0.188         0.980
  HS02004479HS02004480         7.691        12.856         0.452         0.053         0.273
  HS02004862HS02004870         3.311         5.514         0.177         0.019         0.103
  HS02004848HS02004852         0.619         1.024         0.015         0.001         0.007
  HS02004856HS02004862         1.310         2.271         0.029         0.002         0.013
  HS02004852HS02004856         0.619         1.024         0.015         0.001         0.007
  HS02004802HS02004478        47.689        77.233         4.060         0.499         2.517
  HS02004478WS02006287        78.027       127.635         5.707         0.685         3.489
  HS02004817HS02004807        47.359        76.333         4.190         0.517         2.604
  HS02004807HS02004802        48.494        78.519         4.138         0.508         2.565
  YS02001759YS02001757        36.904        57.385         1.106         0.093         0.589
  YS02001762YS02001759        21.044        33.196         0.762         0.070         0.421
  YS02001765YS02001762        20.975        33.049         0.793         0.074         0.442
  YS02001770YS02001767        18.478        28.930         0.493         0.035         0.250
  YS02001774YS02001770         4.224         6.662         0.134         0.011         0.072
  YS02001779YS02001774         3.945         6.279         0.213         0.023         0.126
  YS02001649YS02001757        51.100        77.237         1.494         0.127         0.771
  YS02001767YS02001765        21.233        33.425         0.822         0.078         0.460
  YS02006561YS02001783        95.098       148.186         3.933         0.399         2.240
  YS02001783YS02001784        95.039       148.099         3.929         0.398         2.238
  YS02001784YS02001785       102.421       159.922         4.641         0.487         2.683
  YS02001788YS02001790       103.125       161.064         4.714         0.497         2.729
  YS02001790YS02001791       104.128       162.676         4.812         0.509         2.791
  YS02001791YS02001793       104.075       162.597         4.808         0.508         2.788
  YS02001910YS02001907        41.155        64.329         2.513         0.282         1.502
  YS02001786YS02001788       102.680       160.346         4.669         0.491         2.701
  YS02001915YS02001910        41.067        64.130         2.482         0.277         1.482
  YS02001918YS02001915        27.842        43.404         2.151         0.259         1.322
  YS02001923YS02001920         7.839        11.385         0.224         0.018         0.118
  YS02001926YS02001923         7.455        10.764         0.185         0.013         0.093
  YS02001929YS02001926         7.141        10.254         0.153         0.009         0.073
  YS02001920YS02001918        27.790        43.313         2.141         0.258         1.316
  YS02001629YS02163301         7.517        11.385         0.187         0.011         0.086
  YS02001619YS02001622        10.208        15.309         0.254         0.015         0.116
  YS02001622YS02001625         9.660        14.542         0.239         0.014         0.109
  YS02001625YS02001629         8.674        13.107         0.215         0.013         0.098
  YS02163301YS02001633         7.365        11.158         0.184         0.012         0.085
  YS02163601YS02164001        23.585        35.418         0.654         0.053         0.334
  YS02164001YS02001641        23.212        34.846         0.631         0.050         0.320
  YS02001641YS02001644        23.240        34.894         0.619         0.049         0.312
  YS02001647YS02001649        36.759        54.913         0.894         0.067         0.441
  YS02006553YS02006556        72.191       112.549         3.281         0.346         1.902
  YS02006556YS02006558        72.112       112.403         3.246         0.341         1.880
  YSB6556YSB1171               3.333         5.623         0.149         0.017         0.088
  YS02001907YS02006553        72.186       112.537         3.285         0.347         1.905
  YS02006558YS02006561        95.110       148.199         3.933         0.399         2.241
  YS02001633YS02163601        24.021        35.996         0.636         0.049         0.320
  YS02001644YS02001647        37.388        55.780         0.910         0.068         0.450
  YS02001745YS02001748        16.818        25.900         0.570         0.047         0.306
  YS02001748YS02001751        21.137        32.894         0.997         0.101         0.574
  YS02001751YS02001754        17.876        27.834         0.794         0.078         0.453
  YS02001754YS02001757        19.367        30.224         0.914         0.094         0.527
  YS02001882YS02001884         0.246         0.371         0.010         0.001         0.006
  YS02001884YS02001887         0.950         1.460         0.036         0.004         0.020
  YS02001890YS02001895        31.850        49.344         0.793         0.067         0.414
  YS02001895YS02001898        31.741        49.185         0.787         0.066         0.411
  YS02001898YS02001901        31.653        49.064         0.785         0.066         0.409
  YS02001901YS02001904        31.814        49.354         0.810         0.070         0.426
  YS02001904YS02001907        32.764        50.919         0.917         0.083         0.493
  YS02001887YS02001890        32.688        50.641         0.860         0.075         0.456
  YS02001652YS02001649        17.292        26.731         0.677         0.066         0.367
  YS02001655YS02001652        17.355        26.852         0.718         0.071         0.394
  YS02001658YS02001655        17.617        27.089         0.659         0.062         0.352
  YS02001661YS02001658        14.596        22.133         0.351         0.023         0.157
  YS02001664YS02001661        14.415        21.858         0.347         0.022         0.155
  YSB1154YSB6556               2.810         4.788         0.085         0.008         0.047
  YSB1174YSB1171               2.348         4.026         0.103         0.011         0.060
  YSB1171HS02004479            7.534        12.612         0.435         0.051         0.262
  HS02004881HS02006253         5.780         9.924         0.219         0.021         0.122
  YS02001793JiankangQianchi       104.506       163.318         4.826         0.510         2.798
  YS02001757CaochengTiaoxuchi        99.079       152.179         3.047         0.261         1.611
  WSF200WS02003060           126.045       203.734         7.755         0.896         4.662
  1                         1536.524      2460.226       142.457        17.716        88.794
  CC-Pump-1                    0.000         0.000         0.000         0.000         0.000
  CC-Pump-2                    0.000         0.000         0.000         0.000         0.000
  JK-Pump-1                   39.868        62.294         1.751         0.182         1.008
  JK-Pump-2                   30.226        47.547         1.411         0.150         0.820
  XR-Pump-1                  396.131       633.734        37.816         4.722        23.619
  XR-Pump-2                  303.412       485.386        28.926         3.611        18.063
  XR-Pump-3                  294.932       471.822        28.120         3.510        17.560
  XR-Pump-4                  294.932       471.822        28.120         3.510        17.560
  

  Analysis begun on:  Sat Jul 10 23:29:33 2021
  Analysis ended on:  Sat Jul 10 23:29:34 2021
  Total elapsed time: 00:00:01