
  EPA STORM WATER MANAGEMENT MODEL - VERSION 5.1 (Build 5.3.0.dev0)
  --------------------------------------------------------------

  WARNING 04: minimum elevation drop used for Conduit WS02004404WS02004405
  WARNING 03: negative offset ignored for Link YS02001904YS02001907
  
  *********************************************************
  NOTE: The summary statistics displayed in this report are
  based on results found at every computational time step,  
  not just on results from each reporting time step.
  *********************************************************
  
  ****************
  Analysis Options
  ****************
  Flow Units ............... LPS
  Process Models:
    Rainfall/Runoff ........ YES
    RDII ................... NO
    Snowmelt ............... NO
    Groundwater ............ NO
    Flow Routing ........... YES
    Ponding Allowed ........ NO
    Water Quality .......... YES
  Infiltration Method ...... HORTON
  Flow Routing Method ...... DYNWAVE
  Surcharge Method ......... EXTRAN
  Starting Date ............ 08/28/2015 08:00:00
  Ending Date .............. 08/28/2015 16:00:00
  Antecedent Dry Days ...... 8.0
  Report Time Step ......... 00:01:00
  Wet Time Step ............ 00:01:00
  Dry Time Step ............ 00:01:00
  Routing Time Step ........ 5.00 sec
  Variable Time Step ....... YES
  Maximum Trials ........... 8
  Number of Threads ........ 4
  Head Tolerance ........... 0.001500 m
  
  
  **************************        Volume         Depth
  Runoff Quantity Continuity     hectare-m            mm
  **************************     ---------       -------
  Total Precipitation ......        10.887        23.836
  Evaporation Loss .........         0.000         0.000
  Infiltration Loss ........         1.418         3.104
  Surface Runoff ...........         8.323        18.222
  Final Storage ............         1.148         2.513
  Continuity Error (%) .....        -0.015
  
  
  **************************           COD            SS            TN            TP         NH4-N
  Runoff Quality Continuity             kg            kg            kg            kg            kg
  **************************    ----------    ----------    ----------    ----------    ----------
  Initial Buildup ..........     41378.656     70582.865      1804.177       168.684      1032.807
  Surface Buildup ..........        44.730        99.549         2.633         0.232         1.473
  Wet Deposition ...........         0.000         0.000         0.000         0.000         0.000
  Sweeping Removal .........         0.000         0.000         0.000         0.000         0.000
  Infiltration Loss ........       168.080       326.771         3.336         0.241         1.609
  BMP Removal ..............         0.000         0.000         0.000         0.000         0.000
  Surface Runoff ...........      9382.764     18311.870       184.103        12.981        88.313
  Remaining Buildup ........     31869.465     52037.902      1619.303       155.690       944.326
  Continuity Error (%) .....         0.007         0.008         0.004         0.003         0.003
  
  
  **************************        Volume        Volume
  Flow Routing Continuity        hectare-m      10^6 ltr
  **************************     ---------     ---------
  Dry Weather Inflow .......         0.630         6.296
  Wet Weather Inflow .......         8.321        83.208
  Groundwater Inflow .......         0.000         0.000
  RDII Inflow ..............         0.000         0.000
  External Inflow ..........         0.105         1.045
  External Outflow .........         2.475        24.754
  Flooding Loss ............         6.105        61.053
  Evaporation Loss .........         0.000         0.000
  Exfiltration Loss ........         0.000         0.000
  Initial Stored Volume ....         0.076         0.761
  Final Stored Volume ......         0.663         6.631
  Continuity Error (%) .....        -1.235
  
  
  **************************           COD            SS            TN            TP         NH4-N
  Quality Routing Continuity            kg            kg            kg            kg            kg
  **************************    ----------    ----------    ----------    ----------    ----------
  Dry Weather Inflow .......      1573.993      2518.389       151.103        18.888        94.440
  Wet Weather Inflow .......      9381.575     18309.785       184.076        12.979        88.301
  Groundwater Inflow .......         0.000         0.000         0.000         0.000         0.000
  RDII Inflow ..............         0.000         0.000         0.000         0.000         0.000
  External Inflow ..........       187.321       299.713        17.983         2.248        11.239
  External Outflow .........      3028.780      5562.754       141.119        15.482        82.339
  Flooding Loss ............      7430.716     14381.066       184.286        15.800        95.875
  Exfiltration Loss ........         0.000         0.000         0.000         0.000         0.000
  Mass Reacted .............         0.000         0.000         0.000         0.000         0.000
  Initial Stored Mass ......         0.000         0.000         0.000         0.000         0.000
  Final Stored Mass ........       553.602       969.565        23.892         2.502        13.724
  Continuity Error (%) .....         1.165         1.015         1.095         0.966         1.052
  
  
  *************************
  Highest Continuity Errors
  *************************
  Node YS02001884 (8.81%)
  Node HS02004842 (7.72%)
  Node JK-storage (-7.65%)
  Node HS02004817 (1.57%)
  Node YSB1171 (1.37%)
  
  
  ***************************
  Time-Step Critical Elements
  ***************************
  Link WS02006252WS02006251 (58.20%)
  Link WS02006280WS02006229 (13.06%)
  Link YS02001793JiankangQianchi (7.68%)
  Link WS02004404WS02004405 (5.46%)
  Link WS02006238WS02006235 (3.09%)
  
  
  ********************************
  Highest Flow Instability Indexes
  ********************************
  Link WS02006113WS02006111 (36)
  Link YS02163601YS02164001 (35)
  Link WS02006238WS02006235 (34)
  Link YS02001629YS02163301 (34)
  Link YS02163301YS02001633 (33)
  
  
  *************************
  Routing Time Step Summary
  *************************
  Minimum Time Step           :     0.11 sec
  Average Time Step           :     1.21 sec
  Maximum Time Step           :     5.00 sec
  Percent in Steady State     :    -0.00
  Average Iterations per Step :     4.09
  Percent Not Converging      :    17.40
  
  
  ***************************
  Subcatchment Runoff Summary
  ***************************
  
  ------------------------------------------------------------------------------------------------------------------------------
                            Total      Total      Total      Total     Imperv       Perv      Total       Total     Peak  Runoff
                           Precip      Runon       Evap      Infil     Runoff     Runoff     Runoff      Runoff   Runoff   Coeff
  Subcatchment                 mm         mm         mm         mm         mm         mm         mm    10^6 ltr      LPS
  ------------------------------------------------------------------------------------------------------------------------------
  sub0                      23.84       0.00       0.00       0.77      22.13       0.90      23.02        0.02     5.06   0.966
  sub1                      23.84       0.00       0.00       1.33      21.12       1.29      22.42        0.15    33.98   0.940
  sub2                      23.84       0.00       0.00       5.60      14.93       3.22      18.15        0.17    32.49   0.761
  sub3                      23.84       0.00       0.00       5.94      14.89       2.88      17.77        0.40    70.76   0.746
  sub4                      23.84       0.00       0.00       1.46      20.96       1.16      22.12        0.46    81.55   0.928
  sub5                      23.84       0.00       0.00       0.82      22.07       0.85      22.93        0.26    59.56   0.962
  sub7                      23.84       0.00       0.00       1.03      21.63       1.11      22.74        0.08    19.22   0.954
  sub8                      23.84       0.00       0.00       1.05      21.62       1.10      22.72        0.15    35.26   0.953
  sub9                      23.84       0.00       0.00       1.05      21.62       1.10      22.71        0.11    26.33   0.953
  sub10                     23.84       0.00       0.00       0.94      21.84       0.97      22.81        0.25    58.74   0.957
  sub11                     23.84       0.00       0.00       0.92      21.86       0.99      22.85        0.27    65.28   0.959
  sub12                     23.84       0.00       0.00       1.50      20.69       1.60      22.29        0.19    51.10   0.935
  sub14                     23.84       0.00       0.00       1.05      21.62       1.09      22.71        0.22    51.81   0.953
  sub15                     23.84       0.00       0.00       4.05      16.62       3.10      19.72        0.34    74.01   0.827
  sub16                     23.84       0.00       0.00       4.23      15.93       3.63      19.56        0.20    48.29   0.821
  sub17                     23.84       0.00       0.00       4.13      16.17       3.50      19.67        0.17    39.49   0.825
  sub22                     23.84       0.00       0.00       6.08      13.55       4.17      17.72        1.12   235.47   0.743
  sub23                     23.84       0.00       0.00       5.01      14.97       3.81      18.78        0.90   197.86   0.788
  sub60                     23.84       0.00       0.00       2.13      18.89       0.73      19.63        5.95   667.30   0.823
  sub61                     23.84       0.00       0.00       3.01      18.57       1.04      19.60        6.04   717.95   0.822
  sub62                     23.84       0.00       0.00       1.25      20.37       0.65      21.02        6.46   751.14   0.882
  sub63                     23.84       0.00       0.00       5.57      16.07       1.34      17.42        5.27   638.31   0.731
  sub64                     23.84       0.00       0.00       2.78      18.18       0.79      18.97        5.77   644.78   0.796
  sub65                     23.84       0.00       0.00       2.36      18.54       0.74      19.28        5.93   658.64   0.809
  sub66                     23.84       0.00       0.00       5.92      15.42       0.99      16.41        5.03   574.80   0.689
  sub67                     23.84       0.00       0.00       1.18      20.95       0.73      21.68        6.69   814.16   0.910
  sub68                     23.84       0.00       0.00       2.35      19.39       0.99      20.38        6.27   750.28   0.855
  sub69                     23.84       0.00       0.00       2.36      19.64       1.21      20.85        4.87   655.18   0.875
  sub70                     23.84      21.29       0.00      10.13      28.17       5.22      33.38        7.64   861.91   0.740
  sub71                     23.84       0.00       0.00       1.29      20.08       0.62      20.70        4.89   557.88   0.868
  sub72                     23.84       0.00       0.00       1.26      17.61       0.41      18.02        3.67   352.81   0.756
  1                         23.84      32.51       0.00       1.40      34.72      12.67      47.39       11.14  1042.57   0.841
  2                         23.84       0.00       0.00       3.09       5.81       5.87      11.68        4.67   438.27   0.490
  
  
  ****************************
  Subcatchment Washoff Summary
  ****************************
  
  ------------------------------------------------------------------------------------------
                                 COD            SS            TN            TP         NH4-N
  Subcatchment                    kg            kg            kg            kg            kg
  ------------------------------------------------------------------------------------------
  sub0                         5.447        10.648         0.101         0.009         0.050
  sub1                        23.688        48.042         0.463         0.033         0.225
  sub2                        16.966        34.031         0.358         0.025         0.167
  sub3                        41.903        83.509         0.867         0.061         0.406
  sub4                        55.507       114.756         1.120         0.071         0.542
  sub5                        53.600       106.723         1.016         0.079         0.498
  sub7                        11.854        24.343         0.233         0.016         0.114
  sub8                        17.650        37.231         0.360         0.022         0.174
  sub9                        15.191        31.538         0.304         0.020         0.147
  sub10                       44.044        88.979         0.851         0.062         0.416
  sub11                       42.563        86.978         0.834         0.059         0.406
  sub12                       37.050        74.157         0.712         0.055         0.347
  sub14                       32.601        66.963         0.643         0.044         0.313
  sub15                       47.434        94.407         0.941         0.071         0.448
  sub16                       30.857        61.246         0.608         0.047         0.290
  sub17                       28.315        55.641         0.547         0.044         0.262
  sub22                      161.087       316.749         3.138         0.242         1.488
  sub23                       88.506       179.789         1.886         0.128         0.879
  sub60                      598.344      1178.908        11.877         0.761         5.730
  sub61                      736.068      1436.782        13.949         0.989         6.764
  sub62                      738.540      1463.835        14.545         0.960         7.035
  sub63                      558.943      1077.056        11.149         0.807         5.246
  sub64                      777.492      1479.304        14.547         1.088         7.009
  sub65                      791.436      1511.452        14.887         1.096         7.181
  sub66                      451.426       868.821         9.100         0.616         4.299
  sub67                     1074.243      2092.188        20.037         1.514         9.765
  sub68                      790.053      1552.644        15.337         1.072         7.395
  sub69                      691.205      1362.870        13.308         0.965         6.426
  sub70                     1290.326      2537.678        26.802         1.932        12.782
  sub71                      488.998       981.149         9.988         0.605         4.811
  sub72                      442.986       835.563         8.315         0.589         4.024
  1                         1060.964      2097.547        22.233         1.602        10.518
  2                          119.003       220.893         3.158         0.194         1.368
  ------------------------------------------------------------------------------------------
  System                   11364.294     22212.418       224.213        15.877       107.522
  
  
  ******************
  Node Depth Summary
  ******************
  
  ---------------------------------------------------------------------------------
                                 Average  Maximum  Maximum  Time of Max    Reported
                                   Depth    Depth      HGL   Occurrence   Max Depth
  Node                 Type       Meters   Meters   Meters  days hr:min      Meters
  ---------------------------------------------------------------------------------
  WS02001211           JUNCTION     0.79     0.86     5.69     0  01:43        0.86
  WS02001212           JUNCTION     0.50     0.59     5.65     0  01:42        0.59
  WS02001213           JUNCTION     0.75     0.87     5.63     0  01:41        0.87
  WS02003069           JUNCTION     0.56     0.74     5.32     0  01:43        0.74
  WS02003072           JUNCTION     0.62     0.78     5.15     0  01:41        0.78
  WS02003073           JUNCTION     0.38     0.49     4.55     0  01:42        0.49
  WS02003060           JUNCTION     0.49     0.65     5.58     0  01:40        0.65
  WS02003066           JUNCTION     0.28     0.40     5.95     0  01:35        0.40
  WS02003059           JUNCTION     0.80     0.92     5.61     0  01:43        0.92
  WS02003067           JUNCTION     0.65     0.84     6.16     0  01:35        0.84
  WS02004401           JUNCTION     0.82     1.46     7.46     0  01:32        1.29
  WS02004402           JUNCTION     0.84     1.41     7.37     0  01:32        1.27
  WS02004403           JUNCTION     0.85     1.37     7.30     0  01:32        1.24
  WS02004404           JUNCTION     0.92     1.39     7.24     0  01:32        1.28
  WS02004406           JUNCTION     0.91     1.25     7.08     0  01:32        1.18
  WS02004409           JUNCTION     0.62     1.04     6.81     0  01:35        1.02
  WS02004410           JUNCTION     0.63     1.01     6.73     0  01:35        1.00
  WS02004411           JUNCTION     0.64     0.97     6.65     0  01:35        0.97
  WS02004412           JUNCTION     0.65     0.94     6.58     0  01:35        0.93
  WS02004413           JUNCTION     0.80     1.05     6.52     0  01:35        1.04
  WS02004405           JUNCTION     0.91     1.36     7.21     0  01:32        1.24
  WS02006109           JUNCTION     0.94     1.91     8.53     0  01:33        1.86
  WS02006110           JUNCTION     0.89     1.79     8.37     0  01:32        1.63
  WS02006111           JUNCTION     0.33     1.28     7.98     0  01:32        1.00
  WS02006112           JUNCTION     1.01     1.90     7.78     0  01:32        1.65
  WS02006113           JUNCTION     0.45     1.43     8.32     0  01:32        1.07
  WS02006115           JUNCTION     0.72     1.53     7.67     0  01:32        1.29
  WS02006116           JUNCTION     0.80     1.53     7.57     0  01:32        1.32
  WS02006230           JUNCTION     1.00     2.14     8.88     0  01:33        2.11
  WS02006231           JUNCTION     0.73     1.74     8.87     0  01:33        1.72
  WS02006232           JUNCTION     0.88     1.81     8.85     0  01:34        1.80
  WS02006234           JUNCTION     0.83     1.68     8.84     0  01:34        1.66
  WS02006235           JUNCTION     0.88     1.67     8.84     0  01:33        1.64
  WS02006238           JUNCTION     0.90     1.69     8.83     0  01:34        1.67
  WS02006240           JUNCTION     0.82     1.50     8.80     0  01:34        1.47
  WS02006242           JUNCTION     0.88     1.51     8.77     0  01:34        1.49
  WS02006243           JUNCTION     0.76     1.33     8.75     0  01:33        1.31
  WS02006245           JUNCTION     0.74     1.24     8.73     0  01:34        1.23
  WS02006247           JUNCTION     0.75     1.21     8.71     0  01:34        1.20
  WS02006248           JUNCTION     0.69     1.10     8.69     0  01:32        1.10
  WS02006249           JUNCTION     0.71     1.09     8.69     0  01:32        1.09
  WS02006239           JUNCTION     0.87     1.61     8.82     0  01:34        1.59
  WS02006251           JUNCTION     0.70     1.96     9.63     0  01:32        1.23
  WS02006252           JUNCTION     0.44     1.50     9.74     0  01:32        0.76
  WS02006253           JUNCTION     0.73     1.94     9.58     0  01:32        1.30
  WS02006256           JUNCTION     1.75     2.35     9.28     0  00:00        2.35
  WS02004138           JUNCTION     0.19     0.20     7.45     0  00:00        0.19
  WS02004139           JUNCTION     0.73     0.80     5.71     0  01:42        0.80
  WS02004407           JUNCTION     0.27     0.42     6.74     0  01:35        0.42
  WS02006228           JUNCTION     0.97     2.11     8.76     0  01:33        2.08
  WS02006229           JUNCTION     0.97     2.21     8.90     0  01:33        2.17
  WS02006280           JUNCTION     0.08     0.51     8.78     0  01:33        0.50
  WS02006284           JUNCTION     0.39     0.72     9.12     0  01:34        0.72
  WS02006287           JUNCTION     0.12     0.46     9.42     0  01:34        0.46
  WSF200               JUNCTION     0.28     0.45     5.69     0  01:36        0.45
  HS02004901           JUNCTION     0.14     0.43    10.25     0  01:33        0.43
  HS02004881           JUNCTION     0.01     0.09     9.12     0  01:32        0.06
  HS02004876           JUNCTION     0.05     0.19     9.22     0  01:32        0.19
  HS02004870           JUNCTION     0.02     0.11     9.40     0  01:35        0.11
  HS02004862           JUNCTION     0.03     0.13     9.51     0  01:35        0.13
  HS02004856           JUNCTION     0.08     0.17     9.59     0  01:35        0.17
  HS02004852           JUNCTION     0.02     0.10     9.61     0  01:35        0.10
  HS02004848           JUNCTION     0.01     0.08     9.68     0  01:36        0.08
  HS02004842           JUNCTION     0.34     0.41     9.68     0  01:35        0.41
  HS02004837           JUNCTION     0.03     0.10     9.68     0  01:35        0.10
  HS02004830           JUNCTION     0.05     0.15     9.62     0  01:35        0.15
  HS02004824           JUNCTION     0.03     0.20     9.61     0  01:35        0.20
  HS02004817           JUNCTION     0.46     0.77     9.61     0  01:34        0.77
  HS02004807           JUNCTION     0.14     0.44     9.61     0  01:35        0.44
  HS02004802           JUNCTION     0.18     0.47     9.60     0  01:34        0.47
  HS02004799           JUNCTION     0.14     0.55     9.76     0  01:33        0.55
  HS02004792           JUNCTION     0.05     0.27     9.79     0  01:33        0.27
  HS02004788           JUNCTION     0.04     0.19    10.09     0  01:34        0.19
  HS02004785           JUNCTION     0.06     0.29    10.19     0  01:33        0.29
  HS02004777           JUNCTION     0.16     0.44    10.24     0  01:33        0.44
  HS02004770           JUNCTION     0.13     0.42    10.25     0  01:33        0.42
  HS02004480           JUNCTION     0.10     0.46     9.70     0  01:33        0.46
  HS02004479           JUNCTION     0.14     0.49     9.70     0  01:34        0.49
  HS02004478           JUNCTION     0.08     0.35     9.58     0  01:34        0.35
  YS02001745           JUNCTION     0.81     1.29     8.81     0  01:29        1.04
  YS02001748           JUNCTION     1.22     1.86     8.94     0  01:28        1.46
  YS02001751           JUNCTION     1.40     1.77     8.65     0  01:29        1.64
  YS02001754           JUNCTION     1.66     1.94     8.54     0  01:29        1.88
  YS02001762           JUNCTION     1.85     2.07     8.47     0  02:27        2.07
  YS02001765           JUNCTION     1.81     2.02     8.47     0  02:28        2.01
  YS02001767           JUNCTION     1.77     1.97     8.46     0  02:27        1.97
  YS02001770           JUNCTION     1.76     1.95     8.44     0  02:04        1.95
  YS02001774           JUNCTION     1.83     2.05     8.47     0  01:26        1.99
  YS02001779           JUNCTION     1.56     1.68     8.37     0  01:26        1.68
  YS02001882           JUNCTION     0.69     1.70     8.41     0  01:32        1.64
  YS02001884           JUNCTION     0.79     1.78     8.40     0  01:32        1.74
  YS02001759           JUNCTION     1.89     2.12     8.48     0  02:25        2.11
  YS02001887           JUNCTION     0.87     1.84     8.38     0  01:32        1.82
  YS02001890           JUNCTION     0.89     1.81     8.32     0  01:32        1.81
  YS02001898           JUNCTION     0.66     1.70     8.44     0  01:32        1.56
  YS02001901           JUNCTION     0.78     1.81     8.42     0  01:32        1.67
  YS02001904           JUNCTION     0.75     1.73     8.36     0  01:32        1.63
  YS02001907           JUNCTION     1.08     1.96     8.25     0  01:32        1.96
  YS02001910           JUNCTION     0.88     1.99     8.50     0  01:33        1.88
  YS02001915           JUNCTION     0.68     1.93     8.64     0  01:33        1.77
  YS02001918           JUNCTION     0.43     1.81     8.88     0  01:33        1.59
  YS02001619           JUNCTION     1.35     1.61     8.54     0  01:27        1.53
  YS02001629           JUNCTION     1.70     1.85     8.40     0  01:27        1.85
  YS02001641           JUNCTION     1.80     1.96     8.39     0  01:29        1.93
  YS02001644           JUNCTION     1.80     1.92     8.35     0  01:29        1.92
  YS02001652           JUNCTION     1.66     2.07     8.66     0  04:18        1.89
  YS02001655           JUNCTION     1.43     2.01     8.86     0  04:24        1.69
  YS02001920           JUNCTION     0.54     2.10     9.11     0  01:33        1.67
  YS02001923           JUNCTION     0.36     2.01     9.27     0  01:33        1.44
  YS02001926           JUNCTION     0.40     1.90     9.35     0  01:33        1.27
  YS02001929           JUNCTION     0.25     1.78     9.47     0  01:33        1.05
  YS02001658           JUNCTION     1.15     1.93     9.08     0  04:24        1.42
  YS02001661           JUNCTION     0.91     2.07     9.47     0  04:22        1.18
  YS02001664           JUNCTION     0.42     0.68     8.61     0  01:30        0.68
  YS02001622           JUNCTION     1.37     1.62     8.52     0  01:27        1.54
  YS02001633           JUNCTION     1.80     1.98     8.43     0  01:29        1.94
  YS02001649           JUNCTION     1.86     2.05     8.44     0  01:29        2.05
  YS02001757           JUNCTION     1.99     2.21     8.47     0  02:24        2.21
  YS02001895           JUNCTION     0.66     1.66     8.41     0  01:32        1.56
  YS02001625           JUNCTION     1.65     1.78     8.38     0  01:27        1.78
  YS02163301           JUNCTION     1.74     1.90     8.42     0  01:29        1.89
  YS02163601           JUNCTION     1.85     2.03     8.43     0  01:29        1.98
  YS02164001           JUNCTION     1.78     1.96     8.42     0  01:29        1.91
  YS02001647           JUNCTION     1.64     1.80     8.41     0  04:34        1.79
  YSB1154              JUNCTION     0.28     0.65     9.70     0  01:34        0.65
  YSB6556              JUNCTION     0.17     0.53     9.70     0  01:33        0.53
  YSB1174              JUNCTION     0.23     0.59     9.70     0  01:33        0.59
  YSB1171              JUNCTION     0.43     0.80     9.70     0  01:34        0.80
  YS02006553           JUNCTION     1.09     1.98     8.27     0  01:32        1.97
  YS02006561           JUNCTION     0.42     1.57     8.23     0  01:32        1.09
  YS02006556           JUNCTION     1.05     1.97     8.28     0  01:32        1.94
  YS02006558           JUNCTION     1.09     2.03     8.30     0  01:32        1.98
  YS02001783           JUNCTION     0.66     1.78     7.92     0  01:32        1.48
  YS02001784           JUNCTION     0.67     1.73     7.80     0  01:32        1.42
  YS02001786           JUNCTION     0.59     1.63     7.66     0  01:32        1.26
  YS02001788           JUNCTION     0.52     1.72     7.70     0  01:32        1.13
  YS02001790           JUNCTION     0.66     1.76     7.41     0  05:12        1.29
  YS02001791           JUNCTION     0.63     1.94     7.41     0  07:12        1.28
  YS02001793           JUNCTION     0.89     1.98     6.82     0  07:12        1.80
  WSC                  OUTFALL      0.38     0.49     1.16     0  01:43        0.49
  JK-storage           STORAGE      3.39     5.80     6.60     0  01:32        5.80
  CC-storage           STORAGE      1.23     1.47     8.47     0  02:23        1.47
  XR-storage           STORAGE      7.25     7.72     5.72     0  01:49        7.72
  
  
  *******************
  Node Inflow Summary
  *******************
  
  -------------------------------------------------------------------------------------------------
                                  Maximum  Maximum                  Lateral       Total        Flow
                                  Lateral    Total  Time of Max      Inflow      Inflow     Balance
                                   Inflow   Inflow   Occurrence      Volume      Volume       Error
  Node                 Type           LPS      LPS  days hr:min    10^6 ltr    10^6 ltr     Percent
  -------------------------------------------------------------------------------------------------
  WS02001211           JUNCTION      7.35   390.16     0  03:15       0.212        10.7       0.380
  WS02001212           JUNCTION      0.00   392.90     0  03:15           0        10.7       0.231
  WS02001213           JUNCTION      0.00   395.27     0  03:15           0        10.6       0.274
  WS02003069           JUNCTION      0.32  1379.01     0  01:42     0.00922        24.8       0.151
  WS02003072           JUNCTION      0.00  1379.14     0  01:43           0        24.8       0.177
  WS02003073           JUNCTION      1.82  1380.93     0  01:42      0.0524        24.8       0.206
  WS02003060           JUNCTION     16.53  1379.30     0  01:42       0.476        24.9       0.140
  WS02003066           JUNCTION      0.00  1000.48     0  01:35           0        13.8       0.036
  WS02003059           JUNCTION      0.00   398.05     0  03:14           0        10.6       0.386
  WS02003067           JUNCTION      0.00   996.36     0  01:35           0        13.8       0.074
  WS02004401           JUNCTION      0.00  1015.93     0  01:34           0        14.1       0.162
  WS02004402           JUNCTION      0.00  1016.33     0  01:34           0        14.1       0.152
  WS02004403           JUNCTION      0.00  1017.24     0  01:34           0          14       0.137
  WS02004404           JUNCTION      0.16  1017.66     0  01:34     0.00467          14       0.103
  WS02004406           JUNCTION      0.00  1018.65     0  01:34           0          14       0.249
  WS02004409           JUNCTION      0.00  1016.30     0  01:34           0        13.9       0.135
  WS02004410           JUNCTION      0.00  1008.67     0  01:34           0        13.9       0.150
  WS02004411           JUNCTION      0.00   993.54     0  01:36           0        13.9       0.152
  WS02004412           JUNCTION      0.00   993.92     0  01:36           0        13.9       0.162
  WS02004413           JUNCTION      0.00   994.80     0  01:35           0        13.9       0.236
  WS02004405           JUNCTION      0.04  1018.70     0  01:34      0.0011          14       0.152
  WS02006109           JUNCTION      1.23   978.10     0  01:34      0.0354          14       0.135
  WS02006110           JUNCTION      0.00   978.00     0  01:34           0          14       0.142
  WS02006111           JUNCTION      0.00   977.70     0  01:34           0          14       0.035
  WS02006112           JUNCTION     39.49  1016.50     0  01:34       0.169        14.1       0.223
  WS02006113           JUNCTION      0.00   977.90     0  01:34           0          14       0.079
  WS02006115           JUNCTION      0.00  1016.07     0  01:34           0        14.1       0.157
  WS02006116           JUNCTION      0.00  1016.08     0  01:34           0        14.1       0.136
  WS02006230           JUNCTION     10.28   533.30     0  07:30       0.296        9.61       0.156
  WS02006231           JUNCTION      0.00   523.33     0  07:30           0        9.31       0.111
  WS02006232           JUNCTION      0.00   522.62     0  07:30           0         9.3       0.191
  WS02006234           JUNCTION      0.00   523.16     0  07:30           0        9.28       0.104
  WS02006235           JUNCTION      0.00   524.00     0  07:32           0        9.42       0.106
  WS02006238           JUNCTION      0.00   418.47     0  05:00           0        5.94       0.145
  WS02006240           JUNCTION      0.00   416.81     0  05:00           0        5.92       0.223
  WS02006242           JUNCTION      0.00   416.58     0  05:00           0        5.92       0.271
  WS02006243           JUNCTION      0.00   416.55     0  05:00           0        5.91       0.180
  WS02006245           JUNCTION      0.00   416.43     0  05:00           0         5.9       0.162
  WS02006247           JUNCTION      0.00   416.91     0  05:00           0         5.9       0.127
  WS02006248           JUNCTION      0.00   417.82     0  05:00           0        5.95       0.074
  WS02006249           JUNCTION      0.00   523.53     0  03:01           0        7.35       0.131
  WS02006239           JUNCTION      0.00   417.88     0  05:00           0        5.93       0.196
  WS02006251           JUNCTION      0.08   523.21     0  03:01     0.00222        7.38       0.095
  WS02006252           JUNCTION      0.00   400.00     0  03:00           0        6.42       0.007
  WS02006253           JUNCTION      5.06   289.19     0  01:32      0.0186       0.958       0.254
  WS02006256           JUNCTION      0.00   983.00     0  01:40           0        14.5      -0.008
  WS02004138           JUNCTION      0.00   380.00     0  00:00           0        10.5       0.061
  WS02004139           JUNCTION      0.32   395.85     0  00:00     0.00924        10.5       0.434
  WS02004407           JUNCTION      0.00  1019.45     0  01:34           0        13.9       0.060
  WS02006228           JUNCTION      0.00   976.73     0  01:34           0          14       0.116
  WS02006229           JUNCTION      0.00  1057.17     0  01:32           0        14.1       0.101
  WS02006280           JUNCTION      0.00   937.79     0  01:34           0        4.56       0.014
  WS02006284           JUNCTION      0.10   934.65     0  01:35     0.00275        4.57       0.017
  WS02006287           JUNCTION      0.00   934.66     0  01:35           0        4.56       0.019
  WSF200               JUNCTION      0.00  1001.26     0  01:36           0        13.8       0.035
  HS02004901           JUNCTION     48.29    48.29     0  01:31       0.205       0.205       0.864
  HS02004881           JUNCTION     19.22   196.54     0  01:33      0.0766       0.897       0.078
  HS02004876           JUNCTION     33.98   176.89     0  01:34       0.149       0.821       0.067
  HS02004870           JUNCTION     35.26   143.34     0  01:34       0.145       0.672       0.016
  HS02004862           JUNCTION     32.69   109.55     0  01:35       0.175       0.527       0.032
  HS02004856           JUNCTION     26.33    76.92     0  01:35       0.109       0.354       0.407
  HS02004852           JUNCTION      0.00    51.63     0  01:36           0       0.245       0.024
  HS02004848           JUNCTION     70.76    70.76     0  01:38         0.4         0.4       0.011
  HS02004842           JUNCTION      0.00    21.86     0  01:49           0       0.168       8.368
  HS02004837           JUNCTION     65.09    82.02     0  01:35       0.434        0.59       0.137
  HS02004830           JUNCTION      0.15    82.12     0  01:35     0.00432        0.58       0.213
  HS02004824           JUNCTION     81.60   164.05     0  01:38       0.463        1.04       0.052
  HS02004817           JUNCTION      0.60   166.61     0  01:39      0.0173        1.06       1.598
  HS02004807           JUNCTION     65.28   225.46     0  01:36       0.265        1.31       0.341
  HS02004802           JUNCTION      0.00   226.44     0  01:37           0        1.31       0.297
  HS02004799           JUNCTION     51.81   605.47     0  01:33       0.216        2.83       0.117
  HS02004792           JUNCTION    235.75   554.35     0  01:33        1.13        2.61       0.015
  HS02004788           JUNCTION     75.68   319.93     0  01:33       0.387        1.48       0.026
  HS02004785           JUNCTION      0.15   244.47     0  01:33     0.00432         1.1       0.046
  HS02004777           JUNCTION      0.03   244.67     0  01:32    0.000864         1.1       0.478
  HS02004770           JUNCTION    197.86   245.55     0  01:32       0.896         1.1       0.278
  HS02004480           JUNCTION      0.00   713.03     0  01:33           0        3.28       0.024
  HS02004479           JUNCTION      0.00   107.71     0  01:33           0       0.464       0.160
  HS02004478           JUNCTION      0.00   934.58     0  01:35           0        4.57       0.007
  YS02001745           JUNCTION    667.30   667.30     0  03:01        5.95        5.95       0.190
  YS02001748           JUNCTION      0.04   667.55     0  03:01      0.0013        5.94       0.376
  YS02001751           JUNCTION      0.01   667.86     0  03:01    0.000317        5.92       0.414
  YS02001754           JUNCTION      0.26   668.76     0  03:01     0.00749        5.91       0.409
  YS02001762           JUNCTION      0.00   368.48     0  01:32           0        3.23       0.651
  YS02001765           JUNCTION      0.00   368.54     0  01:35           0        3.22       0.753
  YS02001767           JUNCTION      0.54   372.15     0  01:26      0.0154        3.25       1.112
  YS02001770           JUNCTION    751.30  1087.09     0  03:01        6.47        8.18       0.376
  YS02001774           JUNCTION      0.00   851.98     0  02:29           0         6.3       0.399
  YS02001779           JUNCTION      0.01   851.74     0  02:27    0.000144        6.27       0.242
  YS02001882           JUNCTION      0.00    36.84     0  01:29           0      0.0381       6.886
  YS02001884           JUNCTION      0.00    64.45     0  01:29           0      0.0771       9.656
  YS02001759           JUNCTION    717.99   899.35     0  01:41        6.05        7.53       0.302
  YS02001887           JUNCTION    814.61   815.92     0  01:57         6.7        6.74       0.133
  YS02001890           JUNCTION      0.00   815.79     0  01:57           0        6.69       0.145
  YS02001898           JUNCTION      0.00   597.23     0  01:32           0         5.4       0.062
  YS02001901           JUNCTION      0.00   602.11     0  01:32           0         5.4       0.133
  YS02001904           JUNCTION      0.00   604.18     0  01:32           0        5.39       0.121
  YS02001907           JUNCTION      0.00  1427.97     0  03:01           0          14       0.180
  YS02001910           JUNCTION      0.00   911.29     0  03:01           0        8.64       0.150
  YS02001915           JUNCTION    557.90   911.10     0  03:01        4.89         8.7       0.074
  YS02001918           JUNCTION      0.00   436.71     0  01:32           0        3.84       0.062
  YS02001619           JUNCTION    574.80   574.80     0  03:01        5.03        5.03       0.237
  YS02001629           JUNCTION      0.00   283.09     0  01:26           0         2.1       1.362
  YS02001641           JUNCTION      0.00   456.53     0  01:28           0        6.18       0.342
  YS02001644           JUNCTION    644.82  1924.40     0  03:01        5.77        18.6       0.138
  YS02001652           JUNCTION      0.00   639.59     0  03:01           0        5.23       0.430
  YS02001655           JUNCTION      0.15   639.40     0  03:01     0.00443        5.25       0.485
  YS02001920           JUNCTION      2.87   404.30     0  01:33      0.0827        3.82       0.092
  YS02001923           JUNCTION      0.04   403.12     0  01:33     0.00109        3.72       0.048
  YS02001926           JUNCTION      0.05   463.64     0  01:33      0.0015        3.69       0.071
  YS02001929           JUNCTION    352.81   352.81     0  03:01        3.67        3.67       0.003
  YS02001658           JUNCTION      0.00   638.98     0  03:01           0        5.27       0.467
  YS02001661           JUNCTION      0.00   801.19     0  01:41           0        5.56      -0.091
  YS02001664           JUNCTION    638.31   638.31     0  03:01        5.27        5.57       0.112
  YS02001622           JUNCTION      0.00   574.87     0  03:01           0        5.03       0.633
  YS02001633           JUNCTION    658.84   658.84     0  03:01        5.93        7.11       0.447
  YS02001649           JUNCTION      0.00  1365.55     0  03:01           0        10.5       0.350
  YS02001757           JUNCTION      0.00  2182.79     0  01:41           0        14.1       0.648
  YS02001895           JUNCTION      0.00   593.47     0  01:32           0         5.4       0.117
  YS02001625           JUNCTION      0.00   801.49     0  03:01           0        5.88       0.681
  YS02163301           JUNCTION      0.00   277.02     0  01:26           0         2.1       1.142
  YS02163601           JUNCTION      0.11   459.89     0  01:28     0.00317        6.18       0.490
  YS02164001           JUNCTION      0.00   458.40     0  01:28           0        6.17       0.323
  YS02001647           JUNCTION      0.00   846.70     0  03:02           0        8.18       0.345
  YSB1154              JUNCTION     59.56    59.56     0  01:33        0.26        0.26       0.555
  YSB6556              JUNCTION      0.00    59.44     0  01:33           0       0.261       0.487
  YSB1174              JUNCTION     51.10    51.10     0  01:30       0.195       0.195       0.657
  YSB1171              JUNCTION      0.00   108.25     0  01:32           0       0.462       1.393
  YS02006553           JUNCTION      0.00   730.82     0  04:02           0        7.64       0.211
  YS02006561           JUNCTION      0.00  1062.77     0  01:32           0        13.9       0.005
  YS02006556           JUNCTION      0.00   730.38     0  04:02           0        7.65       0.146
  YS02006558           JUNCTION    751.16  1062.25     0  01:32        6.29        13.9       0.040
  YS02001783           JUNCTION      0.00  1024.12     0  01:31           0        13.9       0.019
  YS02001784           JUNCTION      1.06  1025.26     0  01:31      0.0305        13.9       0.031
  YS02001786           JUNCTION      0.06  1025.23     0  01:31     0.00162        13.9       0.029
  YS02001788           JUNCTION      0.07  1004.80     0  01:31     0.00204        13.9       0.019
  YS02001790           JUNCTION      0.15   984.10     0  02:00     0.00446        13.9       0.015
  YS02001791           JUNCTION      0.00   984.22     0  01:51           0        13.9       0.007
  YS02001793           JUNCTION      0.00   984.36     0  01:51           0        13.9      -0.021
  WSC                  OUTFALL       0.00  1381.87     0  01:43           0        24.8       0.000
  JK-storage           STORAGE       0.00  1024.24     0  01:30           0          14      -7.104
  CC-storage           STORAGE       0.00  2182.40     0  01:41           0        10.2       0.631
  XR-storage           STORAGE    1680.85  1680.85     0  03:01        21.6        22.2       0.001
  
  
  **********************
  Node Surcharge Summary
  **********************
  
  Surcharging occurs when water rises above the top of the highest conduit.
  ---------------------------------------------------------------------
                                               Max. Height   Min. Depth
                                   Hours       Above Crown    Below Rim
  Node                 Type      Surcharged         Meters       Meters
  ---------------------------------------------------------------------
  WS02004401           JUNCTION        1.83          0.463        1.197
  WS02004402           JUNCTION        1.86          0.414        1.326
  WS02004403           JUNCTION        1.87          0.367        1.663
  WS02004404           JUNCTION        1.95          0.391        2.389
  WS02004406           JUNCTION        1.92          0.249        2.201
  WS02004409           JUNCTION        0.13          0.042        2.318
  WS02004410           JUNCTION        0.01          0.008        2.532
  WS02004413           JUNCTION        0.89          0.050        2.150
  WS02004405           JUNCTION        1.94          0.360        2.440
  WS02006109           JUNCTION        5.36          1.092        0.728
  WS02006110           JUNCTION        4.05          0.876        0.974
  WS02006111           JUNCTION        0.64          0.467        1.403
  WS02006112           JUNCTION        4.45          0.899        0.781
  WS02006113           JUNCTION        0.71          0.626        1.304
  WS02006115           JUNCTION        1.72          0.520        1.730
  WS02006116           JUNCTION        1.74          0.471        1.819
  WS02006230           JUNCTION        3.82          1.057        0.513
  WS02006231           JUNCTION        4.27          1.032        0.498
  WS02006232           JUNCTION        5.45          1.112        0.368
  WS02006234           JUNCTION        4.90          0.963        0.277
  WS02006235           JUNCTION        5.20          0.963        0.327
  WS02006238           JUNCTION        5.29          0.970        0.460
  WS02006240           JUNCTION        4.88          0.794        0.596
  WS02006242           JUNCTION        5.02          0.775        0.045
  WS02006243           JUNCTION        4.73          0.615        0.155
  WS02006245           JUNCTION        4.66          0.530        0.320
  WS02006247           JUNCTION        4.69          0.504        0.256
  WS02006248           JUNCTION        4.42          0.380        0.000
  WS02006249           JUNCTION        4.49          0.390        0.000
  WS02006239           JUNCTION        4.97          0.866        0.424
  WS02006251           JUNCTION        3.36          0.926        0.254
  WS02006252           JUNCTION        4.84          1.100        0.000
  WS02006253           JUNCTION        3.52          0.900        1.580
  WS02006256           JUNCTION        7.23          2.050        0.000
  WS02006228           JUNCTION        5.32          1.280        0.920
  WS02006229           JUNCTION        0.01          0.026        1.044
  HS02004817           JUNCTION        0.46          0.067        1.673
  YS02001745           JUNCTION        0.88          0.293        1.057
  YS02001748           JUNCTION        6.52          0.784        0.406
  YS02001751           JUNCTION        6.53          0.770        0.430
  YS02001754           JUNCTION        6.54          0.886        0.264
  YS02001762           JUNCTION        6.57          1.075        0.075
  YS02001765           JUNCTION        6.56          1.021        0.079
  YS02001767           JUNCTION        6.56          0.974        0.056
  YS02001770           JUNCTION        6.56          0.920        0.000
  YS02001774           JUNCTION        6.57          1.046        0.004
  YS02001779           JUNCTION        6.54          0.680        0.000
  YS02001882           JUNCTION        2.54          0.696        0.134
  YS02001884           JUNCTION        2.56          0.725        0.145
  YS02001759           JUNCTION        6.58          1.116        0.094
  YS02001887           JUNCTION        2.62          0.792        0.158
  YS02001890           JUNCTION        2.64          0.760        0.000
  YS02001898           JUNCTION        2.51          0.674        0.066
  YS02001901           JUNCTION        2.59          0.807        0.063
  YS02001904           JUNCTION        2.57          0.729        0.121
  YS02001907           JUNCTION        3.14          0.950        0.000
  YS02001910           JUNCTION        2.67          0.990        0.110
  YS02001915           JUNCTION        2.54          0.925        0.075
  YS02001918           JUNCTION        2.40          0.810        0.000
  YS02001619           JUNCTION        6.54          0.610        0.000
  YS02001629           JUNCTION        6.54          0.470        0.000
  YS02001641           JUNCTION        6.57          0.958        0.142
  YS02001644           JUNCTION        6.57          0.920        0.000
  YS02001652           JUNCTION        6.54          1.037        0.093
  YS02001655           JUNCTION        6.53          1.008        0.192
  YS02001920           JUNCTION        2.42          1.102        0.038
  YS02001923           JUNCTION        0.01          0.800        0.020
  YS02001926           JUNCTION        0.01          0.900        0.000
  YS02001929           JUNCTION        0.01          0.780        0.000
  YS02001658           JUNCTION        6.52          0.934        0.366
  YS02001661           JUNCTION        1.47          0.996        0.394
  YS02001622           JUNCTION        6.54          0.620        0.000
  YS02001633           JUNCTION        6.56          0.960        0.100
  YS02001649           JUNCTION        6.57          1.050        0.000
  YS02001757           JUNCTION        6.59          1.210        0.000
  YS02001895           JUNCTION        2.53          0.662        0.088
  YS02001625           JUNCTION        6.55          0.780        0.000
  YS02163301           JUNCTION        6.56          0.902        0.128
  YS02163601           JUNCTION        6.57          1.034        0.046
  YS02164001           JUNCTION        6.57          0.965        0.135
  YS02001647           JUNCTION        6.55          0.800        0.100
  YS02006553           JUNCTION        3.21          0.982        0.208
  YS02006561           JUNCTION        2.42          0.775        0.375
  YS02006556           JUNCTION        2.84          0.927        0.423
  YS02006558           JUNCTION        2.81          0.932        0.468
  YS02001783           JUNCTION        2.63          0.983        0.617
  YS02001784           JUNCTION        2.60          0.934        0.556
  YS02001786           JUNCTION        2.52          0.828        0.602
  YS02001788           JUNCTION        2.47          0.920        0.560
  YS02001790           JUNCTION        3.21          0.961        0.196
  YS02001791           JUNCTION        3.30          1.145        0.775
  YS02001793           JUNCTION        3.57          0.984        1.616
  
  
  *********************
  Node Flooding Summary
  *********************
  
  Flooding refers to all water that overflows a node, whether it ponds or not.
  --------------------------------------------------------------------------
                                                             Total   Maximum
                                 Maximum   Time of Max       Flood    Ponded
                        Hours       Rate    Occurrence      Volume     Depth
  Node                 Flooded       LPS   days hr:min    10^6 ltr    Meters
  --------------------------------------------------------------------------
  WS02006248              0.44    150.58      0  01:39       0.139     0.000
  WS02006249              3.41    400.96      0  03:02       1.490     0.000
  WS02006252              0.01     24.12      0  01:32       0.000     0.000
  WS02006256              4.88    835.03      0  01:40      10.849     0.000
  YS02001770              1.07    235.79      0  03:01       0.336     0.000
  YS02001779              3.94    851.47      0  02:29       6.247     0.000
  YS02001890              1.74    299.67      0  01:56       1.276     0.000
  YS02001907              2.28   1197.50      0  03:01       6.358     0.000
  YS02001918              0.01     88.28      0  01:33       0.000     0.000
  YS02001619              0.01     95.60      0  01:27       0.000     0.000
  YS02001629              0.01    229.80      0  01:27       0.002     0.000
  YS02001644              5.27   1924.36      0  03:01      17.110     0.000
  YS02001926              0.01     13.80      0  01:33       0.000     0.000
  YS02001929              0.01    264.47      0  01:33       0.001     0.000
  YS02001622              0.01    104.30      0  01:27       0.000     0.000
  YS02001649              1.22    518.79      0  03:01       1.284     0.000
  YS02001757              0.01      1.07      0  02:25       0.000     0.000
  YS02001625              3.02    801.48      0  03:01       4.633     0.000
  JK-storage              0.63    690.27      0  01:32       0.639     0.000
  XR-storage              6.18   1300.69      0  03:01      10.689     0.000
  
  
  **********************
  Storage Volume Summary
  **********************
  
  --------------------------------------------------------------------------------------------------
                         Average     Avg  Evap Exfil       Maximum     Max    Time of Max    Maximum
                          Volume    Pcnt  Pcnt  Pcnt        Volume    Pcnt     Occurrence    Outflow
  Storage Unit           1000 m3    Full  Loss  Loss       1000 m3    Full    days hr:min        LPS
  --------------------------------------------------------------------------------------------------
  JK-storage               0.170      58     0     0         0.291     100       0  01:32     983.00
  CC-storage               3.432      22     0     0         4.098      26       0  02:23     400.00
  XR-storage               0.870      94     0     0         0.926     100       0  01:49     380.00
  
  
  ***********************
  Outfall Loading Summary
  ***********************
  
  ---------------------------------------------------------------------------------------------------------------------------------
                         Flow       Avg       Max       Total         Total         Total         Total         Total         Total
                         Freq      Flow      Flow      Volume           COD            SS            TN            TP         NH4-N
  Outfall Node           Pcnt       LPS       LPS    10^6 ltr            kg            kg            kg            kg            kg
  ---------------------------------------------------------------------------------------------------------------------------------
  WSC                   99.98    890.66   1381.87      24.754      3028.930      5563.013       141.128        15.483        82.345
  ---------------------------------------------------------------------------------------------------------------------------------
  System                99.98    890.66   1381.87      24.754      3028.930      5563.013       141.128        15.483        82.345
  
  
  ********************
  Link Flow Summary
  ********************
  
  -----------------------------------------------------------------------------
                                 Maximum  Time of Max   Maximum    Max/    Max/
                                  |Flow|   Occurrence   |Veloc|    Full    Full
  Link                 Type          LPS  days hr:min     m/sec    Flow   Depth
  -----------------------------------------------------------------------------
  WS02003066WSF200     CONDUIT   1001.26     0  01:36      3.05    0.17    0.33
  WS02006287WS02006284 CONDUIT    934.56     0  01:35      2.63    0.43    0.46
  WS02006284WS02006280 CONDUIT    937.79     0  01:34      2.86    0.39    0.44
  WS02006280WS02006229 CONDUIT    969.00     0  01:34      4.53    0.21    0.75
  WS02006229WS02006228 CONDUIT    976.73     0  01:34      1.94    3.24    1.00
  WS02006256WS02006235 CONDUIT    288.92     0  00:00      4.23    3.06    1.00
  WS02006253WS02006251 CONDUIT    287.29     0  01:32      0.83    0.86    1.00
  WS02006252WS02006251 CONDUIT    406.87     0  03:40      3.24    1.49    1.00
  WS02006251WS02006249 CONDUIT    523.53     0  03:01      1.36    1.51    1.00
  WS02006249WS02006248 CONDUIT    417.82     0  05:00      1.14    2.29    1.00
  WS02006248WS02006247 CONDUIT    416.91     0  05:00      1.11    0.91    1.00
  WS02006247WS02006245 CONDUIT    416.43     0  05:00      1.08    3.30    1.00
  WS02006245WS02006243 CONDUIT    416.55     0  05:00      1.09    1.23    1.00
  WS02006243WS02006242 CONDUIT    416.58     0  05:00      1.08    0.89    1.00
  WS02006242WS02006240 CONDUIT    416.81     0  05:00      1.08    1.66    1.00
  WS02006240WS02006239 CONDUIT    417.88     0  05:00      1.09    1.31    1.00
  WS02006239WS02006238 CONDUIT    418.47     0  05:00      1.09    1.34    1.00
  WS02006238WS02006235 CONDUIT    419.98     0  05:00      1.45    0.94    1.00
  WS02006235WS02006234 CONDUIT    523.16     0  07:30      1.36    5.52    1.00
  WS02006234WS02006232 CONDUIT    522.62     0  07:30      1.39    1.06    1.00
  WS02006232WS02006231 CONDUIT    523.33     0  07:30      1.36    1.10    1.00
  WS02006231WS02006230 CONDUIT    523.02     0  07:30      1.36    7.93    1.00
  WS02006230WS02006229 CONDUIT    534.96     0  07:30      1.39   11.91    1.00
  WS02006228WS02006109 CONDUIT    976.87     0  01:34      1.94    4.27    1.00
  WS02006116WS02004401 CONDUIT   1015.93     0  01:34      1.29    1.40    1.00
  WS02006115WS02006116 CONDUIT   1016.08     0  01:34      1.29    1.30    1.00
  WS02006113WS02006111 CONDUIT    977.70     0  01:34      2.66    1.17    1.00
  WS02006112WS02006115 CONDUIT   1016.07     0  01:34      1.29    0.60    1.00
  WS02006111WS02006112 CONDUIT    977.88     0  01:34      1.95    0.46    1.00
  WS02006110WS02006113 CONDUIT    977.90     0  01:34      1.95    0.89    1.00
  WS02006109WS02006110 CONDUIT    978.00     0  01:34      1.95    1.88    1.00
  WS02004411WS02004412 CONDUIT    993.92     0  01:36      1.29    1.41    0.96
  WS02004401WS02004402 CONDUIT   1016.33     0  01:34      1.29    1.22    1.00
  WS02004413WS02003067 CONDUIT    996.36     0  01:35      1.63    0.43    0.73
  WS02004412WS02004413 CONDUIT    994.80     0  01:35      1.28    0.67    0.97
  WS02004410WS02004411 CONDUIT    993.54     0  01:36      1.27    1.36    0.99
  WS02004409WS02004410 CONDUIT   1008.67     0  01:34      1.29    1.30    1.00
  WS02004407WS02004409 CONDUIT   1016.30     0  01:34      1.85    0.36    0.71
  WS02004406WS02004407 CONDUIT   1019.45     0  01:34      1.72    0.46    0.71
  WS02004405WS02004406 CONDUIT   1018.65     0  01:34      1.30    2.01    1.00
  WS02004404WS02004405 CONDUIT   1018.66     0  01:34      1.30    9.98    1.00
  WS02004403WS02004404 CONDUIT   1017.50     0  01:34      1.30    0.74    1.00
  WS02004402WS02004403 CONDUIT   1017.24     0  01:34      1.30    1.46    1.00
  WS02004139WS02001211 CONDUIT    382.81     0  03:15      0.90    0.48    0.65
  WS02004138WS02004139 CONDUIT    395.52     0  00:00      3.64    0.08    0.47
  WS02003067WS02003066 CONDUIT   1000.48     0  01:35      1.71    0.32    0.52
  WS02001213WS02003059 CONDUIT    398.05     0  03:14      0.89    0.66    0.88
  WS02001212WS02001213 CONDUIT    395.27     0  03:15      1.32    0.61    0.57
  WS02001211WS02001212 CONDUIT    392.90     0  03:15      0.78    0.30    0.72
  WS02003072WS02003073 CONDUIT   1379.11     0  01:42      1.99    2.98    0.59
  WS02003069WS02003072 CONDUIT   1379.14     0  01:43      1.84    0.66    0.63
  WS02003060WS02003069 CONDUIT   1378.69     0  01:42      2.04    0.54    0.58
  WS02003059WS02003060 CONDUIT    401.85     0  03:29      0.95    0.26    0.79
  HS02004901HS02004770 CONDUIT     47.75     0  01:32      0.11    0.18    0.61
  HS02004876HS02004881 CONDUIT    177.76     0  01:33      1.41    1.89    0.20
  HS02004870HS02004876 CONDUIT    143.30     0  01:35      0.95    0.10    0.22
  HS02004842HS02004848 CONDUIT     21.86     0  01:49      0.09    0.01    0.35
  HS02004837HS02004842 CONDUIT     22.38     0  01:49      0.42    0.01    0.37
  HS02004830HS02004837 CONDUIT     81.97     0  01:35      0.70    0.08    0.18
  HS02004824HS02004830 CONDUIT     82.88     0  01:37      0.63    0.11    0.25
  HS02004817HS02004824 CONDUIT    166.01     0  01:39      0.37    0.07    0.64
  HS02004770HS02004777 CONDUIT    244.64     0  01:32      0.57    0.45    0.62
  HS02004799HS02004480 CONDUIT    605.42     0  01:33      1.21    0.76    0.71
  HS02004792HS02004799 CONDUIT    554.25     0  01:33      1.36    0.34    0.58
  HS02004788HS02004792 CONDUIT    319.85     0  01:34      1.40    0.21    0.33
  HS02004785HS02004788 CONDUIT    244.45     0  01:33      1.02    1.84    0.34
  HS02004777HS02004785 CONDUIT    244.32     0  01:33      0.67    0.30    0.52
  HS02004480HS02004478 CONDUIT    712.97     0  01:33      1.74    3.00    0.59
  HS02004479HS02004480 CONDUIT    107.65     0  01:33      0.45    0.10    0.68
  HS02004862HS02004870 CONDUIT    109.57     0  01:36      0.90    0.12    0.17
  HS02004848HS02004852 CONDUIT     51.63     0  01:36      0.58    0.06    0.13
  HS02004856HS02004862 CONDUIT     76.86     0  01:35      0.67    0.08    0.16
  HS02004852HS02004856 CONDUIT     51.73     0  01:36      0.39    0.06    0.19
  HS02004802HS02004478 CONDUIT    227.64     0  01:38      0.57    0.20    0.58
  HS02004478WS02006287 CONDUIT    934.66     0  01:35      2.37    0.26    0.44
  HS02004817HS02004807 CONDUIT    166.71     0  01:39      0.30    0.10    0.81
  HS02004807HS02004802 CONDUIT    226.44     0  01:37      0.51    0.43    0.64
  YS02001759YS02001757 CONDUIT    899.39     0  01:41      1.15    0.64    1.00
  YS02001762YS02001759 CONDUIT    370.53     0  01:26      0.47    0.43    1.00
  YS02001765YS02001762 CONDUIT    368.48     0  01:32      0.47    0.35    1.00
  YS02001770YS02001767 CONDUIT    371.61     0  01:26      0.50    1.47    1.00
  YS02001774YS02001770 CONDUIT    851.98     0  02:29      1.08    0.54    1.00
  YS02001779YS02001774 CONDUIT    851.74     0  02:27      1.08    0.43    1.00
  YS02001649YS02001757 CONDUIT    889.67     0  01:39      1.13    0.54    1.00
  YS02001767YS02001765 CONDUIT    368.54     0  01:35      0.48    0.46    1.00
  YS02006561YS02001783 CONDUIT   1024.12     0  01:31      2.27    0.53    1.00
  YS02001783YS02001784 CONDUIT   1024.20     0  01:31      2.04    1.41    1.00
  YS02001784YS02001785 CONDUIT   1025.17     0  01:31      2.08    2.39    1.00
  YS02001788YS02001790 CONDUIT    983.94     0  02:00      2.48    0.73    1.00
  YS02001790YS02001791 CONDUIT    984.22     0  01:51      2.97    1.07    1.00
  YS02001791YS02001793 CONDUIT    984.36     0  01:51      5.82    0.42    1.00
  YS02001910YS02001907 CONDUIT    911.58     0  03:01      1.16    0.51    1.00
  YS02001786YS02001788 CONDUIT   1004.73     0  01:31      2.32    1.94    1.00
  YS02001915YS02001910 CONDUIT    911.29     0  03:01      1.16    0.45    1.00
  YS02001918YS02001915 CONDUIT    436.71     0  01:32      0.57    0.24    1.00
  YS02001923YS02001920 CONDUIT    403.08     0  01:33      0.92    0.18    1.00
  YS02001926YS02001923 CONDUIT    463.59     0  01:33      1.01    0.66    1.00
  YS02001929YS02001926 CONDUIT    352.45     0  03:01      1.07    0.17    1.00
  YS02001920YS02001918 CONDUIT    401.63     0  01:34      0.85    0.39    1.00
  YS02001629YS02163301 CONDUIT    283.09     0  01:26      0.36    0.35    1.00
  YS02001619YS02001622 CONDUIT    574.87     0  03:01      0.86    0.85    1.00
  YS02001622YS02001625 CONDUIT    575.16     0  03:01      0.73    0.31    1.00
  YS02001625YS02001629 CONDUIT    258.13     0  01:26      0.39    0.12    1.00
  YS02163301YS02001633 CONDUIT    277.02     0  01:26      0.35    0.26    1.00
  YS02163601YS02164001 CONDUIT    458.40     0  01:28      0.58    0.41    1.00
  YS02164001YS02001641 CONDUIT    456.53     0  01:28      0.58    0.62    1.00
  YS02001641YS02001644 CONDUIT    458.24     0  01:28      0.58    1.48    1.00
  YS02001647YS02001649 CONDUIT    846.70     0  03:02      1.08    0.45    1.00
  YS02006553YS02006556 CONDUIT    730.38     0  04:02      0.93    0.62    1.00
  YS02006556YS02006558 CONDUIT    731.81     0  04:02      0.93    0.58    1.00
  YSB6556YSB1171       CONDUIT     59.52     0  01:34      0.17    0.06    0.88
  YS02001907YS02006553 CONDUIT    730.82     0  04:02      0.81    0.86    1.00
  YS02006558YS02006561 CONDUIT   1062.77     0  01:32      3.77    2.35    1.00
  YS02001633YS02163601 CONDUIT    459.78     0  01:28      0.59    0.48    1.00
  YS02001644YS02001647 CONDUIT    846.70     0  02:37      1.08    0.50    1.00
  YS02001745YS02001748 CONDUIT    667.50     0  03:01      1.86    0.26    1.00
  YS02001748YS02001751 CONDUIT    667.85     0  03:01      1.39    0.34    1.00
  YS02001751YS02001754 CONDUIT    668.50     0  03:01      1.15    0.32    1.00
  YS02001754YS02001757 CONDUIT    669.19     0  03:01      0.85    0.27    1.00
  YS02001882YS02001884 CONDUIT     36.84     0  01:29      0.22    0.04    1.00
  YS02001884YS02001887 CONDUIT     64.45     0  01:29      0.16    0.09    1.00
  YS02001890YS02001895 CONDUIT    593.47     0  01:32      0.76    0.28    1.00
  YS02001895YS02001898 CONDUIT    597.23     0  01:32      0.76    1.04    1.00
  YS02001898YS02001901 CONDUIT    602.11     0  01:32      0.77    0.39    1.00
  YS02001901YS02001904 CONDUIT    604.18     0  01:32      0.77    0.94    1.00
  YS02001904YS02001907 CONDUIT    605.74     0  01:32      0.77    0.21    1.00
  YS02001887YS02001890 CONDUIT    815.79     0  01:57      1.04    1.40    1.00
  YS02001652YS02001649 CONDUIT    639.70     0  03:01      0.84    0.32    1.00
  YS02001655YS02001652 CONDUIT    639.59     0  03:01      1.25    0.31    1.00
  YS02001658YS02001655 CONDUIT    639.24     0  03:01      1.61    0.27    1.00
  YS02001661YS02001658 CONDUIT    638.98     0  03:01      1.99    0.25    1.00
  YS02001664YS02001661 CONDUIT    801.19     0  01:41      1.90    0.25    0.84
  YSB1154YSB6556       CONDUIT     59.44     0  01:33      0.17    0.11    0.84
  YSB1174YSB1171       CONDUIT     50.30     0  01:30      0.14    0.08    0.92
  YSB1171HS02004479    CONDUIT    107.71     0  01:33      0.54    0.07    0.78
  HS02004881HS02006253 CONDUIT    284.43     0  01:32      2.76    0.06    0.57
  YS02001793JiankangQianchi CONDUIT   1024.24     0  01:30     16.65    0.08    1.00
  YS02001757CaochengTiaoxuchi CONDUIT   2182.40     0  01:41      3.80    0.96    1.00
  WSF200WS02003060     CONDUIT   1004.63     0  01:36      2.04    0.22    0.46
  1                    CONDUIT   1381.87     0  01:43      3.62    0.48    0.49
  CC-Pump-1            PUMP       200.00     0  02:30              1.00
  CC-Pump-2            PUMP       200.00     0  03:00              1.00
  JK-Pump-1            PUMP       300.00     0  00:00              1.00
  JK-Pump-2            PUMP       683.00     0  01:40              1.00
  XR-Pump-1            PUMP        95.00     0  00:00              1.00
  XR-Pump-2            PUMP        95.00     0  00:00              1.00
  XR-Pump-3            PUMP        95.00     0  00:00              1.00
  XR-Pump-4            PUMP        95.00     0  00:00              1.00
  
  
  ***************************
  Flow Classification Summary
  ***************************
  
  -------------------------------------------------------------------------------------
                      Adjusted    ---------- Fraction of Time in Flow Class ---------- 
                       /Actual         Up    Down  Sub   Sup   Up    Down  Norm  Inlet 
  Conduit               Length    Dry  Dry   Dry   Crit  Crit  Crit  Crit  Ltd   Ctrl  
  -------------------------------------------------------------------------------------
  WS02003066WSF200        1.00   0.01  0.02  0.00  0.00  0.97  0.00  0.00  0.35  0.00
  WS02006287WS02006284    1.00   0.03  0.01  0.00  0.66  0.30  0.00  0.00  0.62  0.00
  WS02006284WS02006280    1.00   0.04  0.00  0.00  0.00  0.00  0.00  0.96  0.00  0.00
  WS02006280WS02006229    1.00   0.04  0.00  0.00  0.05  0.10  0.00  0.82  0.05  0.00
  WS02006229WS02006228    1.00   0.00  0.00  0.00  1.00  0.00  0.00  0.00  0.00  0.00
  WS02006256WS02006235    1.00   0.00  0.00  0.00  1.00  0.00  0.00  0.00  0.00  0.00
  WS02006253WS02006251    1.00   0.02  0.02  0.00  0.96  0.00  0.01  0.00  0.00  0.00
  WS02006252WS02006251    1.00   0.07  0.00  0.00  0.32  0.00  0.60  0.00  0.00  0.00
  WS02006251WS02006249    1.00   0.00  0.00  0.00  1.00  0.00  0.00  0.00  0.12  0.00
  WS02006249WS02006248    1.00   0.00  0.01  0.00  0.96  0.00  0.04  0.00  0.00  0.00
  WS02006248WS02006247    1.00   0.01  0.00  0.00  0.99  0.00  0.00  0.00  0.05  0.00
  WS02006247WS02006245    1.00   0.00  0.00  0.00  0.99  0.00  0.00  0.00  0.00  0.00
  WS02006245WS02006243    1.00   0.00  0.00  0.00  0.97  0.00  0.00  0.03  0.00  0.00
  WS02006243WS02006242    1.00   0.00  0.00  0.00  0.99  0.00  0.00  0.00  0.13  0.00
  WS02006242WS02006240    1.00   0.00  0.00  0.00  0.99  0.00  0.01  0.00  0.00  0.00
  WS02006240WS02006239    1.00   0.00  0.00  0.00  0.96  0.00  0.00  0.03  0.01  0.00
  WS02006239WS02006238    1.00   0.00  0.00  0.00  1.00  0.00  0.00  0.00  0.09  0.00
  WS02006238WS02006235    1.00   0.00  0.00  0.00  1.00  0.00  0.00  0.00  0.00  0.00
  WS02006235WS02006234    1.00   0.00  0.00  0.00  0.98  0.00  0.02  0.00  0.00  0.00
  WS02006234WS02006232    1.00   0.00  0.00  0.00  1.00  0.00  0.00  0.00  0.04  0.00
  WS02006232WS02006231    1.00   0.00  0.00  0.00  1.00  0.00  0.00  0.00  0.00  0.00
  WS02006231WS02006230    1.00   0.00  0.00  0.00  0.83  0.00  0.17  0.00  0.00  0.00
  WS02006230WS02006229    1.00   0.00  0.00  0.00  1.00  0.00  0.00  0.00  0.00  0.00
  WS02006228WS02006109    1.00   0.00  0.00  0.00  1.00  0.00  0.00  0.00  0.00  0.00
  WS02006116WS02004401    1.00   0.01  0.00  0.00  0.99  0.00  0.00  0.00  0.00  0.00
  WS02006115WS02006116    1.00   0.01  0.00  0.00  0.99  0.00  0.00  0.00  0.00  0.00
  WS02006113WS02006111    1.00   0.01  0.00  0.00  0.15  0.84  0.00  0.00  0.12  0.00
  WS02006112WS02006115    1.00   0.01  0.00  0.00  0.99  0.00  0.00  0.00  0.00  0.00
  WS02006111WS02006112    1.00   0.01  0.00  0.00  0.99  0.00  0.00  0.00  0.74  0.00
  WS02006110WS02006113    1.00   0.00  0.00  0.00  0.99  0.00  0.00  0.00  0.00  0.00
  WS02006109WS02006110    1.00   0.00  0.00  0.00  0.99  0.00  0.00  0.00  0.00  0.00
  WS02004411WS02004412    1.00   0.02  0.00  0.00  0.98  0.00  0.00  0.00  0.00  0.00
  WS02004401WS02004402    1.00   0.01  0.00  0.00  0.99  0.00  0.00  0.00  0.00  0.00
  WS02004413WS02003067    1.00   0.02  0.01  0.00  0.00  0.00  0.97  0.00  0.00  0.00
  WS02004412WS02004413    1.00   0.02  0.00  0.00  0.98  0.00  0.00  0.00  0.01  0.00
  WS02004410WS02004411    1.00   0.02  0.00  0.00  0.98  0.00  0.00  0.00  0.00  0.00
  WS02004409WS02004410    1.00   0.02  0.00  0.00  0.98  0.00  0.00  0.00  0.02  0.00
  WS02004407WS02004409    1.00   0.02  0.00  0.00  0.98  0.00  0.00  0.00  0.94  0.00
  WS02004406WS02004407    1.00   0.00  0.02  0.00  0.98  0.00  0.00  0.00  0.00  0.00
  WS02004405WS02004406    1.00   0.00  0.00  0.00  1.00  0.00  0.00  0.00  0.00  0.00
  WS02004404WS02004405    1.00   0.00  0.00  0.00  1.00  0.00  0.00  0.00  0.00  0.00
  WS02004403WS02004404    1.00   0.00  0.01  0.00  0.99  0.00  0.00  0.00  0.00  0.00
  WS02004402WS02004403    1.00   0.01  0.00  0.00  0.99  0.00  0.00  0.00  0.00  0.00
  WS02004139WS02001211    1.00   0.00  0.00  0.00  1.00  0.00  0.00  0.00  0.00  0.00
  WS02004138WS02004139    1.00   0.00  0.00  0.00  1.00  0.00  0.00  0.00  1.00  0.00
  WS02003067WS02003066    1.00   0.03  0.00  0.00  0.97  0.00  0.00  0.00  0.00  0.00
  WS02001213WS02003059    1.00   0.00  0.00  0.00  1.00  0.00  0.00  0.00  0.00  0.00
  WS02001212WS02001213    1.00   0.00  0.00  0.00  0.94  0.00  0.06  0.00  0.00  0.00
  WS02001211WS02001212    1.00   0.00  0.00  0.00  1.00  0.00  0.00  0.00  0.00  0.00
  WS02003072WS02003073    1.00   0.00  0.00  0.00  0.00  0.00  0.00  1.00  0.00  0.00
  WS02003069WS02003072    1.00   0.00  0.00  0.00  1.00  0.00  0.00  0.00  0.07  0.00
  WS02003060WS02003069    1.00   0.00  0.00  0.00  0.99  0.01  0.00  0.00  0.06  0.00
  WS02003059WS02003060    1.00   0.00  0.00  0.00  1.00  0.00  0.00  0.00  0.01  0.00
  HS02004901HS02004770    1.00   0.04  0.00  0.00  0.96  0.00  0.00  0.00  0.00  0.00
  HS02004876HS02004881    1.00   0.01  0.00  0.00  0.82  0.17  0.00  0.00  0.00  0.00
  HS02004870HS02004876    1.00   0.00  0.00  0.00  0.99  0.00  0.00  0.00  0.95  0.00
  HS02004842HS02004848    1.00   0.00  0.04  0.00  0.96  0.00  0.00  0.00  0.54  0.00
  HS02004837HS02004842    1.00   0.00  0.00  0.00  1.00  0.00  0.00  0.00  0.11  0.00
  HS02004830HS02004837    1.00   0.00  0.00  0.00  1.00  0.00  0.00  0.00  0.99  0.00
  HS02004824HS02004830    1.00   0.00  0.00  0.00  1.00  0.00  0.00  0.00  0.03  0.00
  HS02004817HS02004824    1.00   0.00  0.00  0.00  1.00  0.00  0.00  0.00  0.87  0.00
  HS02004770HS02004777    1.00   0.00  0.04  0.00  0.96  0.00  0.00  0.00  0.01  0.00
  HS02004799HS02004480    1.00   0.00  0.01  0.00  0.96  0.00  0.03  0.00  0.00  0.00
  HS02004792HS02004799    1.00   0.00  0.00  0.00  1.00  0.00  0.00  0.00  0.98  0.00
  HS02004788HS02004792    1.00   0.00  0.00  0.00  1.00  0.00  0.00  0.00  0.98  0.00
  HS02004785HS02004788    1.00   0.00  0.00  0.00  1.00  0.00  0.00  0.00  0.00  0.00
  HS02004777HS02004785    1.00   0.00  0.00  0.00  1.00  0.00  0.00  0.00  0.10  0.00
  HS02004480HS02004478    1.00   0.04  0.00  0.00  0.70  0.00  0.00  0.26  0.00  0.00
  HS02004479HS02004480    1.00   0.01  0.00  0.00  0.99  0.00  0.00  0.00  0.10  0.00
  HS02004862HS02004870    1.00   0.00  0.00  0.00  1.00  0.00  0.00  0.00  0.02  0.00
  HS02004848HS02004852    1.00   0.04  0.00  0.00  0.96  0.00  0.00  0.00  0.83  0.00
  HS02004856HS02004862    1.00   0.00  0.04  0.00  0.96  0.00  0.00  0.00  0.85  0.00
  HS02004852HS02004856    1.00   0.04  0.00  0.00  0.96  0.00  0.00  0.00  0.69  0.00
  HS02004802HS02004478    1.00   0.04  0.00  0.00  0.96  0.00  0.00  0.00  0.01  0.00
  HS02004478WS02006287    1.00   0.04  0.00  0.00  0.75  0.21  0.00  0.00  0.59  0.00
  HS02004817HS02004807    1.00   0.00  0.04  0.00  0.96  0.00  0.00  0.00  0.01  0.00
  HS02004807HS02004802    1.00   0.04  0.00  0.00  0.96  0.00  0.00  0.00  0.00  0.00
  YS02001759YS02001757    1.00   0.00  0.00  0.00  1.00  0.00  0.00  0.00  0.14  0.00
  YS02001762YS02001759    1.00   0.00  0.00  0.00  1.00  0.00  0.00  0.00  0.01  0.00
  YS02001765YS02001762    1.00   0.00  0.00  0.00  1.00  0.00  0.00  0.00  0.13  0.00
  YS02001770YS02001767    1.00   0.00  0.00  0.00  1.00  0.00  0.00  0.00  0.00  0.00
  YS02001774YS02001770    1.00   0.00  0.04  0.00  0.96  0.00  0.00  0.00  0.01  0.00
  YS02001779YS02001774    1.00   0.00  0.00  0.00  1.00  0.00  0.00  0.00  0.15  0.00
  YS02001649YS02001757    1.00   0.00  0.00  0.00  1.00  0.00  0.00  0.00  0.14  0.00
  YS02001767YS02001765    1.00   0.00  0.00  0.00  1.00  0.00  0.00  0.00  0.00  0.00
  YS02006561YS02001783    1.00   0.04  0.00  0.00  0.47  0.49  0.00  0.00  0.36  0.00
  YS02001783YS02001784    1.00   0.00  0.04  0.00  0.96  0.00  0.00  0.00  0.00  0.00
  YS02001784YS02001785    1.00   0.00  0.00  0.00  1.00  0.00  0.00  0.00  0.14  0.00
  YS02001788YS02001790    1.00   0.00  0.00  0.00  0.52  0.48  0.00  0.00  0.31  0.00
  YS02001790YS02001791    1.00   0.00  0.00  0.00  0.48  0.52  0.00  0.00  0.36  0.00
  YS02001791YS02001793    1.00   0.00  0.00  0.00  0.51  0.49  0.00  0.00  0.02  0.00
  YS02001910YS02001907    1.00   0.00  0.00  0.00  0.99  0.00  0.00  0.01  0.11  0.00
  YS02001786YS02001788    1.00   0.00  0.00  0.00  0.50  0.50  0.00  0.00  0.00  0.00
  YS02001915YS02001910    1.00   0.00  0.00  0.00  0.99  0.01  0.00  0.00  0.12  0.00
  YS02001918YS02001915    1.00   0.00  0.00  0.00  0.99  0.01  0.00  0.00  0.45  0.00
  YS02001923YS02001920    1.00   0.00  0.00  0.00  1.00  0.00  0.00  0.00  0.66  0.00
  YS02001926YS02001923    1.00   0.00  0.02  0.00  0.26  0.00  0.72  0.00  0.00  0.00
  YS02001929YS02001926    1.00   0.00  0.04  0.00  0.96  0.00  0.00  0.00  0.57  0.00
  YS02001920YS02001918    1.00   0.00  0.00  0.00  1.00  0.00  0.00  0.00  0.00  0.00
  YS02001629YS02163301    1.00   0.04  0.00  0.00  0.96  0.00  0.00  0.00  0.00  0.00
  YS02001619YS02001622    1.00   0.04  0.00  0.00  0.96  0.00  0.00  0.00  0.00  0.00
  YS02001622YS02001625    1.00   0.04  0.00  0.00  0.96  0.00  0.00  0.00  0.02  0.00
  YS02001625YS02001629    1.00   0.04  0.01  0.00  0.95  0.00  0.01  0.00  0.00  0.00
  YS02163301YS02001633    1.00   0.00  0.04  0.00  0.96  0.00  0.00  0.00  0.00  0.00
  YS02163601YS02164001    1.00   0.00  0.03  0.00  0.97  0.00  0.00  0.00  0.00  0.00
  YS02164001YS02001641    1.00   0.00  0.02  0.00  0.97  0.00  0.00  0.00  0.05  0.00
  YS02001641YS02001644    1.00   0.00  0.00  0.00  1.00  0.00  0.00  0.00  0.00  0.00
  YS02001647YS02001649    1.00   0.00  0.04  0.00  0.96  0.00  0.00  0.00  0.01  0.00
  YS02006553YS02006556    1.00   0.01  0.00  0.00  0.99  0.00  0.00  0.00  0.03  0.00
  YS02006556YS02006558    1.00   0.00  0.00  0.00  1.00  0.00  0.00  0.00  0.00  0.00
  YSB6556YSB1171          1.00   0.02  0.02  0.00  0.96  0.00  0.00  0.00  0.00  0.00
  YS02001907YS02006553    1.00   0.00  0.01  0.00  0.99  0.00  0.00  0.00  0.00  0.00
  YS02006558YS02006561    1.00   0.04  0.00  0.00  0.25  0.70  0.00  0.00  0.37  0.00
  YS02001633YS02163601    1.00   0.00  0.00  0.00  1.00  0.00  0.00  0.00  0.14  0.00
  YS02001644YS02001647    1.00   0.00  0.04  0.00  0.96  0.00  0.00  0.00  0.00  0.00
  YS02001745YS02001748    1.00   0.00  0.00  0.00  0.94  0.00  0.00  0.06  0.00  0.00
  YS02001748YS02001751    1.00   0.00  0.00  0.00  0.98  0.02  0.00  0.00  0.13  0.00
  YS02001751YS02001754    1.00   0.00  0.00  0.00  0.95  0.00  0.00  0.05  0.01  0.00
  YS02001754YS02001757    1.00   0.00  0.00  0.00  1.00  0.00  0.00  0.00  0.15  0.00
  YS02001882YS02001884    1.00   0.04  0.00  0.00  0.96  0.00  0.00  0.00  0.00  0.00
  YS02001884YS02001887    1.00   0.02  0.01  0.00  0.97  0.00  0.00  0.00  0.00  0.00
  YS02001890YS02001895    1.00   0.00  0.04  0.00  0.96  0.00  0.00  0.00  0.00  0.00
  YS02001895YS02001898    1.00   0.04  0.00  0.00  0.95  0.00  0.01  0.00  0.00  0.00
  YS02001898YS02001901    1.00   0.04  0.00  0.00  0.96  0.00  0.00  0.00  0.00  0.00
  YS02001901YS02001904    1.00   0.04  0.00  0.00  0.96  0.00  0.00  0.00  0.00  0.00
  YS02001904YS02001907    1.00   0.00  0.04  0.00  0.96  0.00  0.00  0.00  0.00  0.00
  YS02001887YS02001890    1.00   0.00  0.00  0.00  0.99  0.00  0.01  0.00  0.00  0.00
  YS02001652YS02001649    1.00   0.00  0.00  0.00  1.00  0.00  0.00  0.00  0.14  0.00
  YS02001655YS02001652    1.00   0.00  0.00  0.00  0.95  0.00  0.00  0.05  0.01  0.00
  YS02001658YS02001655    1.00   0.00  0.04  0.00  0.94  0.02  0.00  0.00  0.01  0.00
  YS02001661YS02001658    1.00   0.04  0.00  0.00  0.94  0.03  0.00  0.00  0.00  0.00
  YS02001664YS02001661    1.00   0.04  0.00  0.00  0.94  0.02  0.00  0.00  0.06  0.00
  YSB1154YSB6556          1.00   0.04  0.00  0.00  0.96  0.00  0.00  0.00  0.01  0.00
  YSB1174YSB1171          1.00   0.02  0.01  0.00  0.97  0.00  0.00  0.00  0.00  0.00
  YSB1171HS02004479       1.00   0.02  0.00  0.00  0.98  0.00  0.00  0.00  0.09  0.00
  HS02004881HS02006253    1.00   0.02  0.00  0.00  0.92  0.02  0.00  0.05  0.81  0.00
  YS02001793JiankangQianchi    1.00   0.00  0.00  0.00  0.73  0.27  0.00  0.00  0.28  0.00
  YS02001757CaochengTiaoxuchi    1.00   0.00  0.05  0.00  0.92  0.03  0.00  0.00  0.00  0.00
  WSF200WS02003060        1.00   0.00  0.01  0.00  0.99  0.00  0.00  0.00  0.22  0.00
  1                       1.00   0.00  0.00  0.00  0.00  1.00  0.00  0.00  0.56  0.00
  
  
  *************************
  Conduit Surcharge Summary
  *************************
  
  ----------------------------------------------------------------------------
                                                           Hours        Hours 
                         --------- Hours Full --------   Above Full   Capacity
  Conduit                Both Ends  Upstream  Dnstream   Normal Flow   Limited
  ----------------------------------------------------------------------------
  WS02006280WS02006229        0.01      0.01      0.01      0.01         0.01
  WS02006229WS02006228        5.32      5.41      5.32      6.20         5.32
  WS02006256WS02006235        6.82      6.83      7.23      5.38         0.01
  WS02006253WS02006251        4.37      4.37      4.46      0.01         0.01
  WS02006252WS02006251        3.82      3.82      4.84      3.54         0.01
  WS02006251WS02006249        4.39      4.39      4.49      2.80         2.66
[...]
  YS02001649YS02001757        6.57      6.57      6.59      0.01         0.01
  YS02001767YS02001765        6.56      6.56      6.56      0.01         0.01
  YS02006561YS02001783        2.42      2.42      2.63      0.01         0.01
  YS02001783YS02001784        2.60      2.63      2.60      2.88         2.60
  YS02001784YS02001785        2.52      2.60      2.52      3.61         2.52
  YS02001788YS02001790        2.47      2.47      3.21      0.01         0.01
  YS02001790YS02001791        3.20      3.21      3.30      2.56         2.53
  YS02001791YS02001793        3.30      3.30      3.65      0.01         0.01
  YS02001910YS02001907        2.67      2.67      3.14      0.01         0.01
  YS02001786YS02001788        2.47      2.52      2.47      3.25         2.47
  YS02001915YS02001910        2.54      2.54      2.67      0.01         0.01
  YS02001918YS02001915        2.40      2.40      2.54      0.01         0.01
  YS02001923YS02001920        2.24      2.24      2.42      0.01         0.01
  YS02001926YS02001923        0.01      0.01      0.01      0.01         0.01
  YS02001929YS02001926        0.01      0.01      0.01      0.01         0.01
  YS02001920YS02001918        2.40      2.40      2.42      0.01         0.01
  YS02001629YS02163301        6.55      6.55      6.56      0.01         0.01
  YS02001619YS02001622        6.54      6.54      6.54      0.01         0.03
  YS02001622YS02001625        6.54      6.54      6.55      0.01         0.01
  YS02001625YS02001629        6.54      6.54      6.55      0.01         0.01
  YS02163301YS02001633        6.56      6.56      6.57      0.01         0.01
  YS02163601YS02164001        6.57      6.57      6.57      0.01         0.01
  YS02164001YS02001641        6.56      6.57      6.57      0.01         0.02
  YS02001641YS02001644        6.57      6.57      6.57      3.17         3.15
  YS02001647YS02001649        6.55      6.55      6.57      0.01         0.01
  YS02006553YS02006556        2.84      2.84      3.21      0.01         0.01
  YS02006556YS02006558        2.93      2.93      3.27      0.01         0.01
  YSB6556YSB1171              0.01      0.01      0.58      0.01         0.01
  YS02001907YS02006553        3.66      3.66      3.85      0.01         0.01
  YS02006558YS02006561        2.49      2.81      2.49      3.48         2.49
  YS02001633YS02163601        6.56      6.56      6.57      0.01         0.01
  YS02001644YS02001647        6.55      6.55      6.57      0.01         0.01
  YS02001745YS02001748        0.87      0.87      6.52      0.01         0.01
  YS02001748YS02001751        6.52      6.52      6.53      0.01         0.01
  YS02001751YS02001754        6.53      6.53      6.54      0.01         0.01
  YS02001754YS02001757        6.55      6.55      6.59      0.01         0.01
  YS02001882YS02001884        2.54      2.54      2.56      0.01         0.01
  YS02001884YS02001887        2.59      2.59      2.62      0.01         0.01
  YS02001890YS02001895        2.53      2.53      2.69      0.01         0.01
  YS02001895YS02001898        2.51      2.51      2.53      0.01         0.01
  YS02001898YS02001901        2.53      2.53      2.59      0.01         0.01
  YS02001901YS02001904        2.58      2.58      2.59      0.01         0.01
  YS02001904YS02001907        2.58      2.58      3.24      0.01         0.01
  YS02001887YS02001890        2.64      2.64      2.66      1.66         0.01
  YS02001652YS02001649        6.54      6.54      6.57      0.01         0.01
  YS02001655YS02001652        6.53      6.53      6.54      0.01         0.01
  YS02001658YS02001655        6.52      6.52      6.53      0.01         0.01
  YS02001661YS02001658        1.46      1.46      6.52      0.01         0.01
  YS02001664YS02001661        0.01      0.01      2.50      0.01         0.01
  YSB1174YSB1171              0.01      0.01      0.32      0.01         0.01
  HS02004881HS02006253        0.01      0.01      3.52      0.01         0.01
  YS02001793JiankangQianchi        3.57      3.57      4.84      0.01         0.01
  YS02001757CaochengTiaoxuchi        6.15      6.15      6.59      0.01         0.01
  
  
  ***************
  Pumping Summary
  ***************
  
  ---------------------------------------------------------------------------------------------------------
                                                  Min       Avg       Max     Total     Power    % Time Off
                        Percent   Number of      Flow      Flow      Flow    Volume     Usage    Pump Curve
  Pump                 Utilized   Start-Ups       LPS       LPS       LPS  10^6 ltr     Kw-hr    Low   High
  ---------------------------------------------------------------------------------------------------------
  CC-Pump-1               75.00           1      0.00    187.37    200.00     4.020      4.66    0.0    0.0
  CC-Pump-2               60.41           5      0.00    112.09    200.00     2.400      3.30    0.0    0.0
  JK-Pump-1               70.84           4      0.00    240.42    300.00     5.087     64.01    0.0    0.0
  JK-Pump-2               60.42           3      0.00    508.17    683.00     9.385    104.33    0.0   98.1
  XR-Pump-1              100.00           1      0.00     95.00     95.00     2.736     21.40    0.0    0.0
  XR-Pump-2              100.00           1      0.00     94.36     95.00     2.679     20.16    0.0    0.0
  XR-Pump-3               95.83           2      0.00     94.35     95.00     2.565     17.56    0.0    0.0
  XR-Pump-4               95.83           2      0.00     94.35     95.00     2.565     17.56    0.0    0.0
  
  
  ***************************
  Link Pollutant Load Summary
  ***************************
  
  ------------------------------------------------------------------------------------------
                                 COD            SS            TN            TP         NH4-N
  Link                            kg            kg            kg            kg            kg
  ------------------------------------------------------------------------------------------
  WS02003066WSF200          1552.330      3026.914        35.859         2.903        18.221
  WS02006287WS02006284       663.995      1310.633        17.372         1.543         9.093
  WS02006284WS02006280       664.463      1311.363        17.420         1.549         9.123
  WS02006280WS02006229       664.545      1311.627        17.418         1.549         9.122
  WS02006229WS02006228      1534.168      2990.906        34.998         2.799        17.712
  WS02006256WS02006235       283.788       543.569         5.996         0.447         2.977
  WS02006253WS02006251       126.659       256.373         2.716         0.199         1.332
  WS02006252WS02006251       688.022      1337.664        13.309         0.914         6.426
  WS02006251WS02006249       808.697      1583.056        15.918         1.107         7.708
  WS02006249WS02006248       621.291      1207.891        12.313         0.857         5.973
  WS02006248WS02006247       626.431      1217.728        12.437         0.868         6.038
  WS02006247WS02006245       625.060      1214.333        12.421         0.867         6.032
  WS02006245WS02006243       624.131      1211.896        12.413         0.867         6.031
  WS02006243WS02006242       623.121      1209.060        12.408         0.868         6.031
  WS02006242WS02006240       621.257      1204.586        12.380         0.867         6.019
  WS02006240WS02006239       620.553      1202.708        12.369         0.867         6.015
  WS02006239WS02006238       620.732      1202.925        12.368         0.867         6.014
  WS02006238WS02006235       620.574      1202.600        12.353         0.865         6.006
  WS02006235WS02006234       877.188      1693.915        17.772         1.266         8.690
  WS02006234WS02006232       879.974      1699.556        17.845         1.273         8.729
  WS02006232WS02006231       882.961      1705.637        17.922         1.281         8.770
  WS02006231WS02006230       886.443      1712.798        18.007         1.288         8.814
  WS02006230WS02006229       890.912      1722.192        18.103         1.297         8.863
  WS02006228WS02006109      1533.486      2989.737        34.975         2.797        17.699
  WS02006116WS02004401      1564.804      3049.447        36.162         2.926        18.375
  WS02006115WS02006116      1566.070      3051.733        36.203         2.930        18.397
  WS02006113WS02006111      1540.517      3001.054        35.749         2.895        18.187
  WS02006112WS02006115      1567.341      3054.062        36.244         2.934        18.420
  WS02006111WS02006112      1539.609      2999.181        35.725         2.893        18.174
  WS02006110WS02006113      1540.867      3001.527        35.764         2.897        18.196
  WS02006109WS02006110      1541.654      3002.764        35.796         2.900        18.213
  WS02004411WS02004412      1555.778      3033.124        35.967         2.913        18.280
  WS02004401WS02004402      1563.550      3047.185        36.121         2.922        18.352
  WS02004413WS02003067      1553.285      3028.641        35.884         2.905        18.234
  WS02004412WS02004413      1554.402      3030.651        35.925         2.909        18.257
  WS02004410WS02004411      1556.943      3035.214        36.002         2.916        18.298
  WS02004409WS02004410      1558.043      3037.189        36.036         2.919        18.317
  WS02004407WS02004409      1559.040      3038.955        36.066         2.922        18.333
  WS02004406WS02004407      1559.299      3039.344        36.073         2.922        18.337
  WS02004405WS02004406      1560.671      3041.765        36.123         2.927        18.365
  WS02004404WS02004405      1561.858      3043.943        36.140         2.928        18.371
  WS02004403WS02004404      1561.379      3043.299        36.050         2.916        18.313
  WS02004402WS02004403      1562.402      3045.138        36.084         2.919        18.332
  WS02004139WS02001211      1331.729      2308.571        90.167        10.672        54.632
  WS02004138WS02004139      1337.235      2318.034        90.535        10.716        54.854
  WS02003067WS02003066      1552.492      3027.198        35.864         2.904        18.224
  WS02001213WS02003059      1367.335      2364.127        93.934        11.149        57.002
  WS02001212WS02001213      1375.601      2378.138        94.537        11.221        57.370
  WS02001211WS02001212      1377.697      2381.579        94.714        11.243        57.480
  WS02003072WS02003073      3022.318      5553.719       140.109        15.350        81.691
  WS02003069WS02003072      3027.480      5562.186       140.539        15.402        81.957
  WS02003060WS02003069      3030.049      5566.744       140.652        15.414        82.022
  WS02003059WS02003060      1364.612      2359.347        93.777        11.131        56.909
  HS02004901HS02004770        31.242        62.188         0.612         0.047         0.291
  HS02004876HS02004881       101.443       206.374         2.157         0.154         1.048
  HS02004870HS02004876        77.917       158.642         1.702         0.122         0.828
  HS02004842HS02004848        14.998        29.647         0.314         0.022         0.147
  HS02004837HS02004842        19.711        37.157         0.788         0.082         0.444
  HS02004830HS02004837       102.763       188.587         5.380         0.612         3.198
  HS02004824HS02004830       103.641       190.072         5.457         0.621         3.246
  HS02004817HS02004824       159.446       305.385         6.591         0.694         3.797
  HS02004770HS02004777       119.651       241.823         2.495         0.175         1.169
  HS02004799HS02004480       375.141       742.957         8.608         0.706         4.288
  HS02004792HS02004799       343.405       677.457         8.032         0.670         4.017
  HS02004788HS02004792       180.294       357.389         4.713         0.405         2.416
  HS02004785HS02004788       121.058       244.069         2.640         0.193         1.260
  HS02004777HS02004785       120.356       242.956         2.575         0.185         1.220
  HS02004480HS02004478       465.135       923.196        10.263         0.830         5.088
  HS02004479HS02004480        93.775       186.483         1.955         0.161         0.984
  HS02004862HS02004870        60.234       121.320         1.343         0.100         0.655
  HS02004848HS02004852        26.762        53.672         0.548         0.038         0.256
  HS02004856HS02004862        41.869        85.061         0.850         0.058         0.403
  HS02004852HS02004856        26.786        53.716         0.548         0.038         0.257
  HS02004802HS02004478       200.004       389.292         7.178         0.721         4.046
  HS02004478WS02006287       664.082      1310.683        17.388         1.545         9.103
  HS02004817HS02004807       158.341       303.742         6.459         0.677         3.713
  HS02004807HS02004802       199.974       389.201         7.204         0.725         4.064
  YS02001759YS02001757       628.666      1212.307        12.326         0.873         6.014
  YS02001762YS02001759       346.069       664.292         7.039         0.502         3.457
  YS02001765YS02001762       346.500       666.410         7.059         0.503         3.469
  YS02001770YS02001767       351.472       679.730         7.007         0.489         3.420
  YS02001774YS02001770       801.315      1598.468        15.640         1.067         7.592
  YS02001779YS02001774       800.508      1597.020        15.697         1.077         7.634
  YS02001649YS02001757       651.700      1261.389        12.891         0.893         6.223
  YS02001767YS02001765       348.393       671.452         7.099         0.506         3.490
  YS02006561YS02001783      1603.720      3074.505        33.247         2.437        16.404
  YS02001783YS02001784      1603.619      3074.362        33.243         2.437        16.402
  YS02001784YS02001785      1611.161      3086.494        33.971         2.528        16.857
  YS02001788YS02001790      1611.780      3087.529        34.043         2.538        16.903
  YS02001790YS02001791      1612.884      3089.368        34.146         2.550        16.967
  YS02001791YS02001793      1612.742      3089.094        34.141         2.550        16.964
  YS02001910YS02001907       954.521      1853.685        20.441         1.461        10.171
  YS02001786YS02001788      1611.392      3086.902        34.000         2.532        16.875
  YS02001915YS02001910       954.013      1852.651        20.394         1.455        10.141
  YS02001918YS02001915       475.209       891.365        10.626         0.864         5.439
  YS02001923YS02001920       449.233       846.762         8.552         0.613         4.159
  YS02001926YS02001923       446.085       841.032         8.429         0.600         4.089
  YS02001929YS02001926       443.374       836.193         8.332         0.591         4.033
  YS02001920YS02001918       470.750       881.941        10.530         0.858         5.391
  YS02001629YS02163301       211.022       398.971         4.156         0.296         1.988
  YS02001619YS02001622       451.529       869.220         9.097         0.616         4.297
  YS02001622YS02001625       451.218       868.818         9.085         0.615         4.292
  YS02001625YS02001629       205.362       387.905         4.055         0.288         1.937
  YS02163301YS02001633       216.775       410.246         4.256         0.304         2.038
  YS02163601YS02164001       717.762      1352.412        13.945         1.025         6.739
  YS02164001YS02001641       718.460      1353.674        13.945         1.024         6.737
  YS02001641YS02001644       720.890      1358.069        13.981         1.027         6.753
  YS02001647YS02001649       840.534      1619.813        16.770         1.184         8.033
  YS02006553YS02006556       812.616      1520.112        17.624         1.326         8.823
  YS02006556YS02006558       813.178      1521.184        17.592         1.321         8.799
  YSB6556YSB1171              54.546       108.520         1.086         0.087         0.541
  YS02001907YS02006553       812.404      1519.680        17.669         1.333         8.854
  YS02006558YS02006561      1603.599      3074.251        33.245         2.437        16.403
  YS02001633YS02163601       718.285      1353.265        13.920         1.020         6.720
  YS02001644YS02001647       847.940      1634.414        16.889         1.193         8.091
  YS02001745YS02001748       598.631      1179.710        11.879         0.762         5.732
  YS02001748YS02001751       598.186      1178.989        11.891         0.765         5.742
  YS02001751YS02001754       597.532      1177.943        11.880         0.765         5.738
  YS02001754YS02001757       598.790      1179.963        12.054         0.788         5.849
  YS02001882YS02001884         5.680        10.339         0.105         0.008         0.051
  YS02001884YS02001887         8.403        15.456         0.155         0.012         0.076
  YS02001890YS02001895       827.368      1598.512        15.734         1.199         7.705
  YS02001895YS02001898       827.218      1598.355        15.727         1.198         7.701
  YS02001898YS02001901       827.187      1598.203        15.728         1.199         7.702
  YS02001901YS02001904       826.793      1597.670        15.733         1.200         7.707
  YS02001904YS02001907       827.619      1598.900        15.809         1.209         7.754
  YS02001887YS02001890      1076.114      2095.094        20.319         1.551         9.945
  YS02001652YS02001649       542.098      1050.360        10.799         0.789         5.101
  YS02001655YS02001652       542.555      1051.122        10.813         0.790         5.107
  YS02001658YS02001655       542.075      1050.388        10.726         0.778         5.051
  YS02001661YS02001658       542.454      1050.997        10.736         0.779         5.055
  YS02001664YS02001661       554.962      1070.855        11.047         0.800         5.198
  YSB1154YSB6556              54.070       107.776         1.038         0.081         0.511
  YSB1174YSB1171              37.704        75.535         0.747         0.059         0.369
  YSB1171HS02004479           93.615       186.171         1.960         0.162         0.989
  HS02004881HS02006253       114.047       232.634         2.386         0.169         1.157
  YS02001793JiankangQianchi      1613.275      3089.954        34.159         2.552        16.975
  YS02001757CaochengTiaoxuchi       965.586      1846.072        19.207         1.321         9.302
  WSF200WS02003060          1551.855      3026.063        35.851         2.903        18.217
  1                         3028.930      5563.013       141.128        15.483        82.345
  CC-Pump-1                  424.003       822.617         8.231         0.565         3.976
  CC-Pump-2                  263.773       514.504         5.074         0.349         2.448
  JK-Pump-1                  451.850       873.346         9.338         0.689         4.612
  JK-Pump-2                  998.416      1937.598        20.442         1.503        10.077
  XR-Pump-1                  358.251       617.892        24.913         2.963        15.137
  XR-Pump-2                  345.059       596.785        23.648         2.805        14.347
  XR-Pump-3                  318.659       554.545        21.114         2.489        12.763
  XR-Pump-4                  318.659       554.545        21.114         2.489        12.763
  

  Analysis begun on:  Sat Jul 10 16:48:42 2021
  Analysis ended on:  Sat Jul 10 16:48:45 2021
  Total elapsed time: 00:00:03