
  EPA STORM WATER MANAGEMENT MODEL - VERSION 5.1 (Build 5.3.0.dev0)
  --------------------------------------------------------------

  WARNING 04: minimum elevation drop used for Conduit WS02004404WS02004405
  WARNING 03: negative offset ignored for Link YS02001904YS02001907
  
  *********************************************************
  NOTE: The summary statistics displayed in this report are
  based on results found at every computational time step,  
  not just on results from each reporting time step.
  *********************************************************
  
  ****************
  Analysis Options
  ****************
  Flow Units ............... LPS
  Process Models:
    Rainfall/Runoff ........ YES
    RDII ................... NO
    Snowmelt ............... NO
    Groundwater ............ NO
    Flow Routing ........... YES
    Ponding Allowed ........ NO
    Water Quality .......... YES
  Infiltration Method ...... HORTON
  Flow Routing Method ...... DYNWAVE
  Surcharge Method ......... EXTRAN
  Starting Date ............ 08/28/2015 08:00:00
  Ending Date .............. 08/28/2015 15:50:00
  Antecedent Dry Days ...... 8.0
  Report Time Step ......... 00:01:00
  Wet Time Step ............ 00:01:00
  Dry Time Step ............ 00:01:00
  Routing Time Step ........ 5.00 sec
  Variable Time Step ....... YES
  Maximum Trials ........... 8
  Number of Threads ........ 4
  Head Tolerance ........... 0.001500 m
  
  
  **************************        Volume         Depth
  Runoff Quantity Continuity     hectare-m            mm
  **************************     ---------       -------
  Total Precipitation ......         4.120         9.021
  Evaporation Loss .........         0.000         0.000
  Infiltration Loss ........         0.806         1.764
  Surface Runoff ...........         2.634         5.766
  Final Storage ............         0.681         1.492
  Continuity Error (%) .....        -0.019
  
  
  **************************           COD            SS            TN            TP         NH4-N
  Runoff Quality Continuity             kg            kg            kg            kg            kg
  **************************    ----------    ----------    ----------    ----------    ----------
  Initial Buildup ..........     41378.656     70582.865      1804.177       168.684      1032.807
  Surface Buildup ..........        16.219        26.815         2.248         0.206         1.318
  Wet Deposition ...........         0.000         0.000         0.000         0.000         0.000
  Sweeping Removal .........         0.000         0.000         0.000         0.000         0.000
  Infiltration Loss ........        56.120       102.434         1.078         0.074         0.510
  BMP Removal ..............         0.000         0.000         0.000         0.000         0.000
  Surface Runoff ...........      1907.102      3390.650        37.625         2.496        17.797
  Remaining Buildup ........     39431.082     67115.582      1767.710       166.320      1015.813
  Continuity Error (%) .....         0.001         0.001         0.001         0.000         0.001
  
  
  **************************        Volume        Volume
  Flow Routing Continuity        hectare-m      10^6 ltr
  **************************     ---------     ---------
  Dry Weather Inflow .......         0.616         6.165
  Wet Weather Inflow .......         2.633        26.327
  Groundwater Inflow .......         0.000         0.000
  RDII Inflow ..............         0.000         0.000
  External Inflow ..........         0.102         1.024
  External Outflow .........         1.783        17.827
  Flooding Loss ............         1.165        11.648
  Evaporation Loss .........         0.000         0.000
  Exfiltration Loss ........         0.000         0.000
  Initial Stored Volume ....         0.076         0.761
  Final Stored Volume ......         0.573         5.728
  Continuity Error (%) .....        -2.704
  
  
  **************************           COD            SS            TN            TP         NH4-N
  Quality Routing Continuity            kg            kg            kg            kg            kg
  **************************    ----------    ----------    ----------    ----------    ----------
  Dry Weather Inflow .......      1541.201      2465.922       147.955        18.494        92.472
  Wet Weather Inflow .......      1906.527      3389.684        37.613         2.495        17.791
  Groundwater Inflow .......         0.000         0.000         0.000         0.000         0.000
  RDII Inflow ..............         0.000         0.000         0.000         0.000         0.000
  External Inflow ..........       183.418       293.469        17.608         2.201        11.005
  External Outflow .........      2210.033      3678.462       163.378        19.679       100.102
  Flooding Loss ............       871.943      1537.556        20.272         1.602        10.294
  Exfiltration Loss ........         0.000         0.000         0.000         0.000         0.000
  Mass Reacted .............         0.000         0.000         0.000         0.000         0.000
  Initial Stored Mass ......         0.000         0.000         0.000         0.000         0.000
  Final Stored Mass ........       430.769       733.641        16.103         1.610         9.062
  Continuity Error (%) .....         3.261         3.243         1.685         1.292         1.493
  
  
  *************************
  Highest Continuity Errors
  *************************
  Node HS02004842 (18.12%)
  Node JK-storage (-11.81%)
  Node YS02001884 (11.02%)
  Node YS02001774 (4.06%)
  Node YSB1171 (3.72%)
  
  
  ***************************
  Time-Step Critical Elements
  ***************************
  Link WS02006252WS02006251 (60.66%)
  Link WS02006238WS02006235 (9.27%)
  Link YS02006556YS02006558 (8.70%)
  Link WS02006280WS02006229 (7.55%)
  Link YS02001793JiankangQianchi (4.30%)
  
  
  ********************************
  Highest Flow Instability Indexes
  ********************************
  Link WS02006113WS02006111 (42)
  Link YS02001629YS02163301 (39)
  Link YS02163301YS02001633 (38)
  Link YS02163601YS02164001 (38)
  Link YS02001619YS02001622 (38)
  
  
  *************************
  Routing Time Step Summary
  *************************
  Minimum Time Step           :     0.07 sec
  Average Time Step           :     1.30 sec
  Maximum Time Step           :     5.00 sec
  Percent in Steady State     :    -0.00
  Average Iterations per Step :     4.55
  Percent Not Converging      :    23.93
  
  
  ***************************
  Subcatchment Runoff Summary
  ***************************
  
  ------------------------------------------------------------------------------------------------------------------------------
                            Total      Total      Total      Total     Imperv       Perv      Total       Total     Peak  Runoff
                           Precip      Runon       Evap      Infil     Runoff     Runoff     Runoff      Runoff   Runoff   Coeff
  Subcatchment                 mm         mm         mm         mm         mm         mm         mm    10^6 ltr      LPS
  ------------------------------------------------------------------------------------------------------------------------------
  sub0                       9.02       0.00       0.00       0.59       8.34       0.04       8.38        0.01     1.56   0.929
  sub1                       9.02       0.00       0.00       0.96       7.94       0.03       7.97        0.05    10.73   0.884
  sub2                       9.02       0.00       0.00       3.31       5.60       0.02       5.63        0.05     9.99   0.624
  sub3                       9.02       0.00       0.00       3.32       5.57       0.02       5.59        0.13    22.00   0.619
  sub4                       9.02       0.00       0.00       0.98       7.80       0.02       7.81        0.16    26.54   0.866
  sub5                       9.02       0.00       0.00       0.61       8.30       0.02       8.32        0.09    19.09   0.923
  sub7                       9.02       0.00       0.00       0.78       8.15       0.04       8.18        0.03     6.04   0.907
  sub8                       9.02       0.00       0.00       0.78       8.14       0.03       8.17        0.05    11.14   0.906
  sub9                       9.02       0.00       0.00       0.78       8.14       0.03       8.17        0.04     8.33   0.906
  sub10                      9.02       0.00       0.00       0.69       8.22       0.03       8.24        0.09    18.71   0.914
  sub11                      9.02       0.00       0.00       0.69       8.23       0.03       8.26        0.10    20.67   0.916
  sub12                      9.02       0.00       0.00       1.12       7.80       0.05       7.85        0.07    15.49   0.870
  sub14                      9.02       0.00       0.00       0.78       8.14       0.03       8.17        0.08    16.40   0.905
  sub15                      9.02       0.00       0.00       2.67       6.25       0.04       6.29        0.11    22.55   0.698
  sub16                      9.02       0.00       0.00       2.92       6.00       0.06       6.06        0.06    14.13   0.672
  sub17                      9.02       0.00       0.00       2.83       6.09       0.05       6.15        0.05    11.66   0.681
  sub22                      9.02       0.00       0.00       3.84       5.10       0.04       5.14        0.32    70.03   0.570
  sub23                      9.02       0.00       0.00       3.29       5.64       0.05       5.69        0.27    58.88   0.630
  sub60                      9.02       0.00       0.00       1.08       6.36       0.00       6.36        1.93   172.13   0.705
  sub61                      9.02       0.00       0.00       1.53       6.50       0.00       6.51        2.01   205.32   0.721
  sub62                      9.02       0.00       0.00       0.72       7.06       0.00       7.06        2.17   212.92   0.783
  sub63                      9.02       0.00       0.00       2.61       5.70       0.00       5.71        1.73   188.61   0.633
  sub64                      9.02       0.00       0.00       1.35       6.10       0.00       6.10        1.85   163.96   0.676
  sub65                      9.02       0.00       0.00       1.17       6.20       0.00       6.20        1.91   166.84   0.687
  sub66                      9.02       0.00       0.00       2.61       5.24       0.00       5.25        1.61   148.34   0.582
  sub67                      9.02       0.00       0.00       0.72       7.48       0.01       7.49        2.31   261.90   0.830
  sub68                      9.02       0.00       0.00       1.26       6.85       0.01       6.85        2.11   224.81   0.760
  sub69                      9.02       0.00       0.00       1.35       7.13       0.01       7.14        1.67   209.78   0.791
  sub70                      9.02       7.29       0.00       5.41       9.44       0.13       9.57        2.19   205.23   0.587
  sub71                      9.02       0.00       0.00       0.72       6.86       0.00       6.86        1.62   151.64   0.761
  sub72                      9.02       0.00       0.00       0.63       5.38       0.00       5.38        1.10    80.29   0.597
  1                          9.02       9.32       0.00       1.37      10.29       2.44      12.73        2.99   224.45   0.694
  2                          9.02       0.00       0.00       3.02       2.13       0.97       3.10        1.24   130.93   0.344
  
  
  ****************************
  Subcatchment Washoff Summary
  ****************************
  
  ------------------------------------------------------------------------------------------
                                 COD            SS            TN            TP         NH4-N
  Subcatchment                    kg            kg            kg            kg            kg
  ------------------------------------------------------------------------------------------
  sub0                         1.477         2.783         0.025         0.002         0.012
  sub1                         6.153        11.822         0.115         0.008         0.055
  sub2                         3.570         6.623         0.078         0.005         0.035
  sub3                         8.790        16.141         0.188         0.012         0.086
  sub4                        14.050        27.082         0.283         0.017         0.135
  sub5                        14.210        26.953         0.250         0.019         0.121
  sub7                         3.203         6.262         0.060         0.004         0.029
  sub8                         4.830         9.644         0.097         0.006         0.046
  sub9                         4.109         8.091         0.080         0.005         0.038
  sub10                       11.729        22.539         0.214         0.015         0.103
  sub11                       11.523        22.425         0.215         0.014         0.103
  sub12                        9.597        18.329         0.172         0.013         0.083
  sub14                        8.746        17.061         0.166         0.011         0.080
  sub15                       10.387        19.321         0.202         0.014         0.094
  sub16                        6.541        12.149         0.125         0.009         0.058
  sub17                        6.007        11.057         0.111         0.009         0.052
  sub22                       30.571        55.600         0.588         0.044         0.273
  sub23                       18.601        35.114         0.407         0.026         0.185
  sub60                      124.717       221.559         2.559         0.152         1.223
  sub61                      154.185       272.688         2.921         0.195         1.403
  sub62                      162.469       292.665         3.248         0.199         1.555
  sub63                      113.860       198.397         2.359         0.162         1.085
  sub64                      152.434       260.820         2.851         0.203         1.355
  sub65                      156.376       268.749         2.947         0.206         1.403
  sub66                       89.318       154.225         1.907         0.121         0.885
  sub67                      240.148       428.894         4.318         0.311         2.081
  sub68                      171.088       305.978         3.340         0.219         1.589
  sub69                      155.034       280.796         2.945         0.202         1.402
  sub70                      248.946       451.714         5.077         0.344         2.360
  sub71                      107.814       195.888         2.289         0.128         1.092
  sub72                       80.118       134.940         1.531         0.102         0.734
  1                          159.163       290.829         3.331         0.226         1.528
  2                           21.318        36.022         0.650         0.039         0.274
  ------------------------------------------------------------------------------------------
  System                    2311.082      4123.160        45.646         3.042        21.558
  
  
  ******************
  Node Depth Summary
  ******************
  
  ---------------------------------------------------------------------------------
                                 Average  Maximum  Maximum  Time of Max    Reported
                                   Depth    Depth      HGL   Occurrence   Max Depth
  Node                 Type       Meters   Meters   Meters  days hr:min      Meters
  ---------------------------------------------------------------------------------
  WS02001211           JUNCTION     0.77     0.80     5.63     0  02:05        0.80
  WS02001212           JUNCTION     0.47     0.51     5.57     0  02:04        0.51
  WS02001213           JUNCTION     0.70     0.76     5.52     0  02:03        0.76
  WS02003069           JUNCTION     0.48     0.59     5.17     0  02:03        0.59
  WS02003072           JUNCTION     0.55     0.65     5.02     0  02:03        0.65
  WS02003073           JUNCTION     0.33     0.40     4.46     0  02:04        0.40
  WS02003060           JUNCTION     0.43     0.52     5.45     0  02:02        0.52
  WS02003066           JUNCTION     0.22     0.30     5.86     0  02:01        0.30
  WS02003059           JUNCTION     0.75     0.81     5.50     0  02:03        0.81
  WS02003067           JUNCTION     0.56     0.71     6.03     0  02:01        0.71
  WS02004401           JUNCTION     0.65     0.87     6.87     0  01:59        0.87
  WS02004402           JUNCTION     0.68     0.89     6.85     0  01:58        0.89
  WS02004403           JUNCTION     0.70     0.91     6.84     0  01:59        0.91
  WS02004404           JUNCTION     0.77     0.98     6.83     0  01:59        0.98
  WS02004406           JUNCTION     0.78     0.97     6.80     0  01:59        0.97
  WS02004409           JUNCTION     0.46     0.68     6.45     0  02:00        0.68
  WS02004410           JUNCTION     0.48     0.69     6.41     0  02:00        0.69
  WS02004411           JUNCTION     0.50     0.70     6.38     0  02:00        0.70
  WS02004412           JUNCTION     0.52     0.71     6.35     0  02:01        0.71
  WS02004413           JUNCTION     0.68     0.87     6.34     0  02:01        0.87
  WS02004405           JUNCTION     0.77     0.97     6.82     0  01:59        0.97
  WS02006109           JUNCTION     0.73     0.99     7.61     0  06:24        0.98
  WS02006110           JUNCTION     0.73     0.94     7.52     0  06:24        0.93
  WS02006111           JUNCTION     0.21     0.29     7.00     0  01:57        0.29
  WS02006112           JUNCTION     0.82     1.09     6.97     0  01:55        1.07
  WS02006113           JUNCTION     0.32     0.46     7.35     0  01:57        0.46
  WS02006115           JUNCTION     0.54     0.77     6.91     0  01:58        0.77
  WS02006116           JUNCTION     0.62     0.85     6.89     0  01:58        0.85
  WS02006230           JUNCTION     0.70     1.15     7.89     0  06:24        1.14
  WS02006231           JUNCTION     0.46     0.89     8.01     0  06:24        0.89
  WS02006232           JUNCTION     0.59     1.09     8.13     0  06:23        1.09
  WS02006234           JUNCTION     0.51     1.13     8.29     0  06:23        1.10
  WS02006235           JUNCTION     0.54     1.23     8.39     0  06:23        1.18
  WS02006238           JUNCTION     0.57     1.27     8.41     0  06:23        1.21
  WS02006240           JUNCTION     0.46     1.22     8.51     0  06:23        1.15
  WS02006242           JUNCTION     0.51     1.29     8.56     0  06:23        1.23
  WS02006243           JUNCTION     0.39     1.19     8.61     0  06:23        1.13
  WS02006245           JUNCTION     0.37     1.16     8.64     0  06:23        1.11
  WS02006247           JUNCTION     0.38     1.16     8.66     0  06:23        1.13
  WS02006248           JUNCTION     0.33     1.09     8.68     0  06:23        1.07
  WS02006249           JUNCTION     0.35     1.09     8.69     0  06:23        1.09
  WS02006239           JUNCTION     0.52     1.26     8.47     0  06:23        1.19
  WS02006251           JUNCTION     0.33     1.21     8.88     0  06:23        1.12
  WS02006252           JUNCTION     0.25     0.76     9.00     0  06:23        0.68
  WS02006253           JUNCTION     0.36     1.25     8.89     0  06:23        1.15
  WS02006256           JUNCTION     1.52     2.35     9.28     0  00:38        2.35
  WS02004138           JUNCTION     0.19     0.20     7.45     0  00:00        0.19
  WS02004139           JUNCTION     0.71     0.74     5.65     0  02:05        0.74
  WS02004407           JUNCTION     0.21     0.30     6.61     0  01:59        0.30
  WS02006228           JUNCTION     0.73     1.04     7.69     0  06:24        1.03
  WS02006229           JUNCTION     0.71     1.03     7.73     0  06:24        1.02
  WS02006280           JUNCTION     0.07     0.17     8.44     0  01:41        0.17
  WS02006284           JUNCTION     0.37     0.52     8.92     0  01:41        0.52
  WS02006287           JUNCTION     0.10     0.25     9.20     0  01:40        0.25
  WSF200               JUNCTION     0.20     0.31     5.54     0  02:01        0.31
  HS02004901           JUNCTION     0.12     0.26    10.08     0  01:38        0.26
  HS02004881           JUNCTION     0.01     0.03     9.06     0  01:41        0.03
  HS02004876           JUNCTION     0.04     0.11     9.14     0  01:34        0.11
  HS02004870           JUNCTION     0.01     0.05     9.34     0  01:42        0.05
  HS02004862           JUNCTION     0.02     0.06     9.45     0  01:42        0.06
  HS02004856           JUNCTION     0.08     0.11     9.54     0  01:42        0.11
  HS02004852           JUNCTION     0.01     0.04     9.55     0  01:43        0.04
  HS02004848           JUNCTION     0.01     0.04     9.64     0  01:42        0.04
  HS02004842           JUNCTION     0.33     0.37     9.64     0  01:42        0.37
  HS02004837           JUNCTION     0.03     0.06     9.64     0  01:42        0.06
  HS02004830           JUNCTION     0.04     0.07     9.54     0  01:43        0.07
  HS02004824           JUNCTION     0.02     0.05     9.45     0  01:53        0.05
  HS02004817           JUNCTION     0.44     0.56     9.41     0  01:42        0.56
  HS02004807           JUNCTION     0.12     0.24     9.41     0  01:42        0.24
  HS02004802           JUNCTION     0.16     0.27     9.40     0  01:41        0.27
  HS02004799           JUNCTION     0.12     0.30     9.51     0  01:39        0.30
  HS02004792           JUNCTION     0.03     0.12     9.64     0  01:38        0.12
  HS02004788           JUNCTION     0.03     0.09     9.99     0  01:39        0.09
  HS02004785           JUNCTION     0.05     0.15    10.06     0  01:39        0.15
  HS02004777           JUNCTION     0.15     0.28    10.08     0  01:38        0.28
  HS02004770           JUNCTION     0.12     0.25    10.08     0  01:38        0.25
  HS02004480           JUNCTION     0.08     0.23     9.48     0  01:39        0.23
  HS02004479           JUNCTION     0.12     0.27     9.48     0  01:39        0.27
  HS02004478           JUNCTION     0.06     0.16     9.38     0  01:41        0.16
  YS02001745           JUNCTION     0.72     0.88     8.40     0  02:51        0.88
  YS02001748           JUNCTION     1.13     1.33     8.41     0  02:54        1.31
  YS02001751           JUNCTION     1.31     2.20     9.08     0  02:03        1.51
  YS02001754           JUNCTION     1.56     2.11     8.72     0  02:03        1.80
  YS02001762           JUNCTION     1.76     2.04     8.44     0  02:50        2.01
  YS02001765           JUNCTION     1.72     1.99     8.44     0  02:50        1.96
  YS02001767           JUNCTION     1.68     1.94     8.43     0  02:50        1.92
  YS02001770           JUNCTION     1.67     1.92     8.41     0  02:50        1.90
  YS02001774           JUNCTION     1.74     1.98     8.40     0  02:50        1.96
  YS02001779           JUNCTION     1.49     1.68     8.37     0  02:02        1.68
  YS02001882           JUNCTION     0.40     0.68     7.40     0  02:18        0.68
  YS02001884           JUNCTION     0.50     0.78     7.40     0  02:19        0.78
  YS02001759           JUNCTION     1.80     2.08     8.44     0  02:50        2.05
  YS02001887           JUNCTION     0.58     0.86     7.40     0  02:19        0.86
  YS02001890           JUNCTION     0.61     0.89     7.39     0  02:18        0.89
  YS02001898           JUNCTION     0.37     0.64     7.37     0  02:18        0.64
  YS02001901           JUNCTION     0.49     0.76     7.37     0  02:18        0.76
  YS02001904           JUNCTION     0.47     0.74     7.37     0  02:17        0.74
  YS02001907           JUNCTION     0.80     1.08     7.37     0  02:17        1.08
  YS02001910           JUNCTION     0.59     0.86     7.37     0  02:17        0.86
  YS02001915           JUNCTION     0.39     0.65     7.37     0  02:17        0.65
  YS02001918           JUNCTION     0.14     0.30     7.37     0  02:18        0.30
  YS02001619           JUNCTION     1.27     1.53     8.46     0  07:50        1.53
  YS02001629           JUNCTION     1.63     1.85     8.40     0  07:50        1.85
  YS02001641           JUNCTION     1.73     1.96     8.39     0  07:50        1.96
  YS02001644           JUNCTION     1.73     1.92     8.35     0  02:26        1.92
  YS02001652           JUNCTION     1.58     2.16     8.76     0  02:40        1.89
  YS02001655           JUNCTION     1.34     2.14     8.99     0  02:43        1.71
  YS02001920           JUNCTION     0.24     0.37     7.38     0  02:19        0.37
  YS02001923           JUNCTION     0.10     0.13     7.39     0  02:59        0.13
  YS02001926           JUNCTION     0.19     0.25     7.69     0  02:59        0.25
  YS02001929           JUNCTION     0.10     0.13     7.83     0  02:59        0.13
  YS02001658           JUNCTION     1.07     2.30     9.44     0  02:40        1.58
  YS02001661           JUNCTION     0.83     2.45     9.85     0  02:40        1.51
  YS02001664           JUNCTION     0.37     0.57     8.50     0  02:46        0.57
  YS02001622           JUNCTION     1.29     1.54     8.44     0  07:50        1.54
  YS02001633           JUNCTION     1.72     1.98     8.44     0  07:50        1.98
  YS02001649           JUNCTION     1.77     2.05     8.44     0  02:31        2.05
  YS02001757           JUNCTION     1.90     2.17     8.43     0  02:57        2.16
  YS02001895           JUNCTION     0.37     0.63     7.38     0  02:18        0.63
  YS02001625           JUNCTION     1.58     1.78     8.38     0  02:17        1.78
  YS02163301           JUNCTION     1.66     1.91     8.43     0  07:50        1.91
  YS02163601           JUNCTION     1.77     2.03     8.43     0  07:50        2.03
  YS02164001           JUNCTION     1.71     1.96     8.41     0  07:50        1.96
  YS02001647           JUNCTION     1.56     1.81     8.42     0  03:07        1.78
  YSB1154              JUNCTION     0.26     0.42     9.48     0  01:39        0.42
  YSB6556              JUNCTION     0.15     0.31     9.48     0  01:39        0.31
  YSB1174              JUNCTION     0.21     0.37     9.48     0  01:39        0.37
  YSB1171              JUNCTION     0.41     0.57     9.48     0  01:39        0.57
  YS02006553           JUNCTION     0.81     1.08     7.36     0  02:17        1.07
  YS02006561           JUNCTION     0.21     0.49     7.15     0  02:04        0.46
  YS02006556           JUNCTION     0.78     1.05     7.37     0  02:46        1.04
  YS02006558           JUNCTION     0.82     1.08     7.35     0  02:46        1.07
  YS02001783           JUNCTION     0.41     2.40     8.54     0  02:04        0.99
  YS02001784           JUNCTION     0.44     1.92     7.98     0  02:04        0.99
  YS02001786           JUNCTION     0.39     1.81     7.84     0  02:04        0.93
  YS02001788           JUNCTION     0.33     1.90     7.88     0  02:57        0.89
  YS02001790           JUNCTION     0.43     1.96     7.60     0  02:55        1.13
  YS02001791           JUNCTION     0.39     2.72     8.19     0  02:55        1.21
  YS02001793           JUNCTION     0.52     3.60     8.43     0  02:54        1.79
  WSC                  OUTFALL      0.33     0.40     1.07     0  02:04        0.40
  JK-storage           STORAGE      2.59     5.80     6.60     0  02:03        5.80
  CC-storage           STORAGE      1.15     1.39     8.39     0  02:51        1.39
  XR-storage           STORAGE      5.53     7.72     5.72     0  03:12        7.72
  
  
  *******************
  Node Inflow Summary
  *******************
  
  -------------------------------------------------------------------------------------------------
                                  Maximum  Maximum                  Lateral       Total        Flow
                                  Lateral    Total  Time of Max      Inflow      Inflow     Balance
                                   Inflow   Inflow   Occurrence      Volume      Volume       Error
  Node                 Type           LPS      LPS  days hr:min    10^6 ltr    10^6 ltr     Percent
  -------------------------------------------------------------------------------------------------
  WS02001211           JUNCTION      7.35   389.42     0  03:01       0.207        10.3       0.385
  WS02001212           JUNCTION      0.00   391.43     0  03:01           0        10.3       0.231
  WS02001213           JUNCTION      0.00   393.33     0  03:01           0        10.2       0.267
  WS02003069           JUNCTION      0.32   955.70     0  02:02     0.00902        17.9       0.175
  WS02003072           JUNCTION      0.00   955.47     0  02:03           0        17.9       0.213
  WS02003073           JUNCTION      1.82   957.23     0  02:03      0.0514        17.9       0.241
  WS02003060           JUNCTION     16.53   955.46     0  02:02       0.466        17.9       0.165
  WS02003066           JUNCTION      0.00   555.51     0  02:01           0        7.27       0.052
  WS02003059           JUNCTION      0.00   396.58     0  03:00           0        10.2       0.383
  WS02003067           JUNCTION      0.00   555.45     0  02:01           0        7.28       0.111
  WS02004401           JUNCTION      0.00   557.87     0  01:58           0        7.47       0.232
  WS02004402           JUNCTION      0.00   557.82     0  01:58           0        7.45       0.224
  WS02004403           JUNCTION      0.00   557.28     0  01:59           0        7.44       0.209
  WS02004404           JUNCTION      0.16   557.41     0  01:59     0.00457        7.42       0.163
  WS02004406           JUNCTION      0.00   557.41     0  01:59           0         7.4       0.397
  WS02004409           JUNCTION      0.00   557.23     0  01:59           0        7.36       0.167
  WS02004410           JUNCTION      0.00   556.63     0  02:00           0        7.35       0.199
  WS02004411           JUNCTION      0.00   556.14     0  02:00           0        7.33       0.211
  WS02004412           JUNCTION      0.00   555.87     0  02:00           0        7.32       0.235
  WS02004413           JUNCTION      0.00   555.63     0  02:01           0         7.3       0.362
  WS02004405           JUNCTION      0.04   557.38     0  01:59     0.00107        7.41       0.242
  WS02006109           JUNCTION      1.23   550.09     0  01:57      0.0347         7.5       0.125
  WS02006110           JUNCTION      0.00   549.96     0  01:57           0        7.49       0.192
  WS02006111           JUNCTION      0.00   572.91     0  01:58           0        7.47       0.028
  WS02006112           JUNCTION     11.66   564.34     0  01:57      0.0527        7.52       0.339
  WS02006113           JUNCTION      0.00   550.20     0  01:57           0        7.48       0.070
  WS02006115           JUNCTION      0.00   567.90     0  01:57           0         7.5       0.200
  WS02006116           JUNCTION      0.00   559.30     0  01:58           0        7.48       0.170
  WS02006230           JUNCTION     10.28   537.68     0  06:24        0.29        5.89       0.126
  WS02006231           JUNCTION      0.00   527.97     0  06:24           0         5.6       0.032
  WS02006232           JUNCTION      0.00   528.26     0  06:24           0         5.6       0.155
  WS02006234           JUNCTION      0.00   526.76     0  06:24           0         5.6      -0.013
  WS02006235           JUNCTION      0.00   524.33     0  06:23           0        5.71       0.123
  WS02006238           JUNCTION      0.00   340.91     0  03:02           0        2.72      -0.284
  WS02006240           JUNCTION      0.00   354.91     0  03:02           0        2.61       0.059
  WS02006242           JUNCTION      0.00   363.39     0  03:01           0        2.58       0.163
  WS02006243           JUNCTION      0.00   372.06     0  03:01           0        2.55      -0.356
  WS02006245           JUNCTION      0.00   378.12     0  03:01           0        2.55       0.391
  WS02006247           JUNCTION      0.00   383.00     0  03:01           0        2.55       0.099
  WS02006248           JUNCTION      0.00   388.59     0  03:00           0        2.54      -0.100
  WS02006249           JUNCTION      0.00   420.65     0  06:23           0        2.58       0.245
  WS02006239           JUNCTION      0.00   345.33     0  03:02           0        2.67      -0.261
  WS02006251           JUNCTION      0.08   409.53     0  06:23     0.00217        2.63      -0.044
  WS02006252           JUNCTION      0.00   400.00     0  06:20           0        2.28       0.005
  WS02006253           JUNCTION      1.56   122.59     0  06:21     0.00678        0.35       0.035
  WS02006256           JUNCTION      0.00   983.00     0  02:20           0        6.79       0.017
  WS02004138           JUNCTION      0.00   380.00     0  00:00           0        10.1       0.065
  WS02004139           JUNCTION      0.32   394.45     0  00:00     0.00905        10.1       0.443
  WS02004407           JUNCTION      0.00   557.32     0  01:59           0        7.37       0.071
  WS02006228           JUNCTION      0.00   548.99     0  01:57           0        7.47       0.083
  WS02006229           JUNCTION      0.00   553.40     0  06:24           0        7.49       0.168
  WS02006280           JUNCTION      0.00   293.89     0  01:41           0        1.61       0.004
  WS02006284           JUNCTION      0.10   293.90     0  01:41      0.0027        1.61       0.039
  WS02006287           JUNCTION      0.00   293.83     0  01:41           0        1.61       0.045
  WSF200               JUNCTION      0.00   555.55     0  02:01           0        7.26       0.044
  HS02004901           JUNCTION     14.13    14.13     0  01:35      0.0634      0.0638       2.834
  HS02004881           JUNCTION      6.04    59.47     0  01:40      0.0276       0.295       0.061
  HS02004876           JUNCTION     10.73    53.52     0  01:41       0.053       0.268       0.199
  HS02004870           JUNCTION     11.14    42.89     0  01:41      0.0522       0.215       0.048
  HS02004862           JUNCTION     10.19    32.12     0  01:42      0.0581       0.163       0.104
  HS02004856           JUNCTION      8.33    21.96     0  01:41      0.0393       0.106       1.364
  HS02004852           JUNCTION      0.00    13.91     0  01:42           0       0.067       0.077
  HS02004848           JUNCTION     22.00    22.00     0  01:52       0.126       0.126       0.033
  HS02004842           JUNCTION      0.00     8.57     0  01:56           0      0.0718      22.130
  HS02004837           JUNCTION     25.06    32.52     0  01:42        0.27       0.329       0.246
  HS02004830           JUNCTION      0.15    32.65     0  01:42     0.00423       0.319       0.388
  HS02004824           JUNCTION     26.59    58.69     0  01:53       0.164       0.482       0.111
  HS02004817           JUNCTION      0.60    59.28     0  01:53      0.0169       0.499       3.457
  HS02004807           JUNCTION     20.67    78.27     0  01:44       0.096       0.579       0.754
  HS02004802           JUNCTION      0.00    78.60     0  01:45           0       0.578       0.686
  HS02004799           JUNCTION     16.40   183.02     0  01:38      0.0777       0.894       0.333
  HS02004792           JUNCTION     70.31   166.68     0  01:38       0.333       0.817       0.049
  HS02004788           JUNCTION     24.22    96.80     0  01:38       0.155       0.485       0.079
  HS02004785           JUNCTION      0.15    72.64     0  01:38     0.00423       0.331       0.147
  HS02004777           JUNCTION      0.03    72.63     0  01:37    0.000846       0.331       1.592
  HS02004770           JUNCTION     58.88    72.83     0  01:36       0.271       0.333       0.930
  HS02004480           JUNCTION      0.00   217.11     0  01:39           0        1.05       0.084
  HS02004479           JUNCTION      0.00    34.23     0  01:40           0       0.171       0.429
  HS02004478           JUNCTION      0.00   293.82     0  01:41           0        1.61       0.023
  YS02001745           JUNCTION    172.13   204.73     0  02:15        1.93        1.93       0.585
  YS02001748           JUNCTION      0.04   360.07     0  02:15     0.00127        1.92       1.178
  YS02001751           JUNCTION      0.01   347.71     0  02:01     0.00031         1.9       1.239
  YS02001754           JUNCTION      0.26   208.16     0  02:01     0.00733        1.88       1.321
  YS02001762           JUNCTION      0.00   237.51     0  02:13           0        1.59       1.343
  YS02001765           JUNCTION      0.00   233.39     0  02:13           0         1.6       1.538
  YS02001767           JUNCTION      0.54   230.10     0  02:13      0.0151        1.62       2.265
  YS02001770           JUNCTION    213.08   267.31     0  02:56        2.17        2.21       1.446
  YS02001774           JUNCTION      0.00   267.85     0  02:56           0        0.62       4.232
  YS02001779           JUNCTION      0.01   268.13     0  02:56    0.000141       0.588       2.711
  YS02001882           JUNCTION      0.00    12.37     0  03:03           0      0.0168      13.375
  YS02001884           JUNCTION      0.00    21.75     0  03:09           0      0.0502      12.384
  YS02001759           JUNCTION    205.36   446.89     0  02:13        2.01        3.53       0.656
  YS02001887           JUNCTION    262.35   281.56     0  02:07        2.32        2.35       0.333
  YS02001890           JUNCTION      0.00   274.78     0  02:06           0        2.31       0.372
  YS02001898           JUNCTION      0.00   276.97     0  02:07           0        2.29       0.108
  YS02001901           JUNCTION      0.00   279.67     0  02:20           0        2.29       0.276
  YS02001904           JUNCTION      0.00   280.56     0  02:21           0        2.29       0.251
  YS02001907           JUNCTION      0.00   533.39     0  02:20           0        5.07       0.457
  YS02001910           JUNCTION      0.00   249.28     0  02:20           0        2.79       0.399
  YS02001915           JUNCTION    151.66   241.29     0  03:02        1.62        2.79       0.190
  YS02001918           JUNCTION      0.00    91.99     0  03:02           0        1.17       0.139
  YS02001619           JUNCTION    148.34   148.34     0  02:29        1.61        1.61       0.777
  YS02001629           JUNCTION      0.00   167.49     0  02:02           0        1.53       1.913
  YS02001641           JUNCTION      0.00   350.61     0  02:18           0        3.34       0.632
  YS02001644           JUNCTION    164.00   909.08     0  02:55        1.85        7.81       0.343
  YS02001652           JUNCTION      0.00   251.99     0  02:09           0        1.69       1.400
  YS02001655           JUNCTION      0.15   314.96     0  01:57     0.00434        1.71       1.437
  YS02001920           JUNCTION      2.87    83.24     0  02:59      0.0809        1.18       0.225
  YS02001923           JUNCTION      0.04    80.37     0  02:59     0.00106         1.1       0.041
  YS02001926           JUNCTION      0.05    80.34     0  02:59     0.00147         1.1       0.277
  YS02001929           JUNCTION     80.29    80.29     0  02:59         1.1         1.1       0.039
  YS02001658           JUNCTION      0.00   585.78     0  02:09           0        1.75       1.117
  YS02001661           JUNCTION      0.00   535.52     0  02:33           0         2.1      -0.193
  YS02001664           JUNCTION    188.61   340.61     0  02:29        1.73        2.08       0.318
  YS02001622           JUNCTION      0.00   168.02     0  02:02           0         1.6       2.026
  YS02001633           JUNCTION    167.04   340.55     0  02:09        1.91         3.4       0.948
  YS02001649           JUNCTION      0.00   683.26     0  02:10           0        5.34       0.705
  YS02001757           JUNCTION      0.00  1242.04     0  02:13           0        8.14       1.142
  YS02001895           JUNCTION      0.00   278.19     0  02:07           0         2.3       0.205
  YS02001625           JUNCTION      0.00   167.44     0  02:02           0        1.56       2.561
  YS02163301           JUNCTION      0.00   184.74     0  02:09           0        1.52       1.621
  YS02163601           JUNCTION      0.11   342.97     0  02:18      0.0031        3.36       0.904
  YS02164001           JUNCTION      0.00   345.39     0  02:18           0        3.34       0.614
  YS02001647           JUNCTION      0.00   514.85     0  02:18           0        4.56       0.620
  YSB1154              JUNCTION     19.09    19.09     0  01:39      0.0942      0.0948       1.543
  YSB6556              JUNCTION      0.00    19.20     0  01:39           0      0.0956       1.328
  YSB1174              JUNCTION     15.49    15.49     0  01:35      0.0686       0.069       1.890
  YSB1171              JUNCTION      0.00    34.41     0  01:38           0        0.17       3.866
  YS02006553           JUNCTION      0.00   533.57     0  02:20           0        5.06       0.295
  YS02006561           JUNCTION      0.00   756.19     0  02:20           0        7.13       0.012
  YS02006556           JUNCTION      0.00   533.64     0  02:20           0        5.07       0.213
  YS02006558           JUNCTION    225.69   756.54     0  02:20        2.13        7.17       0.062
  YS02001783           JUNCTION      0.00   758.43     0  02:20           0        7.13       0.023
  YS02001784           JUNCTION      1.06   772.25     0  02:20      0.0299        7.16       0.042
  YS02001786           JUNCTION      0.06   786.49     0  02:21     0.00159        7.16       0.038
  YS02001788           JUNCTION      0.07   827.84     0  02:21       0.002        7.16       0.026
  YS02001790           JUNCTION      0.15   858.81     0  02:20     0.00437        7.16       0.004
  YS02001791           JUNCTION      0.00   878.90     0  02:21           0        7.16       0.017
  YS02001793           JUNCTION      0.00   913.24     0  02:21           0        7.17      -0.013
  WSC                  OUTFALL       0.00   957.03     0  02:04           0        17.8       0.000
  JK-storage           STORAGE       0.00   932.76     0  02:53           0        7.32     -10.566
  CC-storage           STORAGE       0.00  1246.03     0  02:13           0        6.25       1.041
  XR-storage           STORAGE     525.74   525.74     0  02:57        9.87        10.5      -0.001
  
  
  **********************
  Node Surcharge Summary
  **********************
  
  Surcharging occurs when water rises above the top of the highest conduit.
  ---------------------------------------------------------------------
                                               Max. Height   Min. Depth
                                   Hours       Above Crown    Below Rim
  Node                 Type      Surcharged         Meters       Meters
  ---------------------------------------------------------------------
  WS02006109           JUNCTION        2.16          0.172        1.648
  WS02006110           JUNCTION        0.44          0.028        1.822
  WS02006112           JUNCTION        0.66          0.086        1.594
  WS02006230           JUNCTION        0.21          0.065        1.505
  WS02006231           JUNCTION        0.36          0.181        1.349
  WS02006232           JUNCTION        1.54          0.389        1.091
  WS02006234           JUNCTION        0.88          0.413        0.827
  WS02006235           JUNCTION        1.08          0.521        0.769
  WS02006238           JUNCTION        1.16          0.546        0.884
  WS02006240           JUNCTION        0.62          0.509        0.881
  WS02006242           JUNCTION        0.74          0.564        0.256
  WS02006243           JUNCTION        0.46          0.479        0.291
  WS02006245           JUNCTION        0.42          0.449        0.401
  WS02006247           JUNCTION        0.42          0.453        0.307
  WS02006248           JUNCTION        0.37          0.371        0.009
  WS02006249           JUNCTION        0.39          0.390        0.000
  WS02006239           JUNCTION        0.86          0.517        0.773
  WS02006251           JUNCTION        0.16          0.175        1.005
  WS02006252           JUNCTION        0.93          0.361        0.739
  WS02006253           JUNCTION        0.18          0.209        2.271
  WS02006256           JUNCTION        7.06          2.050        0.000
  WS02006228           JUNCTION        2.11          0.210        1.990
  YS02001748           JUNCTION        5.47          0.250        0.940
  YS02001751           JUNCTION        5.74          1.200        0.000
  YS02001754           JUNCTION        5.95          1.058        0.092
  YS02001762           JUNCTION        6.15          1.044        0.106
  YS02001765           JUNCTION        6.12          0.991        0.109
  YS02001767           JUNCTION        6.11          0.942        0.088
  YS02001770           JUNCTION        6.10          0.885        0.035
  YS02001774           JUNCTION        6.13          0.980        0.070
  YS02001779           JUNCTION        5.94          0.680        0.000
  YS02001759           JUNCTION        6.16          1.077        0.133
  YS02001907           JUNCTION        1.30          0.068        0.882
  YS02001619           JUNCTION        5.73          0.529        0.081
  YS02001629           JUNCTION        5.74          0.470        0.000
  YS02001641           JUNCTION        6.13          0.956        0.144
  YS02001644           JUNCTION        6.13          0.920        0.000
  YS02001652           JUNCTION        5.98          1.130        0.000
  YS02001655           JUNCTION        5.76          1.143        0.057
  YS02001658           JUNCTION        5.51          1.300        0.000
  YS02001661           JUNCTION        0.17          1.376        0.014
  YS02001622           JUNCTION        5.78          0.536        0.084
  YS02001633           JUNCTION        6.12          0.963        0.097
  YS02001649           JUNCTION        6.15          1.050        0.000
  YS02001757           JUNCTION        6.20          1.171        0.039
  YS02001625           JUNCTION        6.06          0.780        0.000
  YS02163301           JUNCTION        6.10          0.912        0.118
  YS02163601           JUNCTION        6.14          1.028        0.052
  YS02164001           JUNCTION        6.12          0.956        0.144
  YS02001647           JUNCTION        6.01          0.810        0.090
  YS02006553           JUNCTION        1.38          0.075        1.115
  YS02006556           JUNCTION        0.01          0.015        1.335
  YS02001783           JUNCTION        0.43          1.600        0.000
  YS02001784           JUNCTION        0.52          1.116        0.374
  YS02001786           JUNCTION        0.42          1.015        0.415
  YS02001788           JUNCTION        0.37          1.100        0.380
  YS02001790           JUNCTION        1.25          1.157        0.000
  YS02001791           JUNCTION        1.38          1.920        0.000
  YS02001793           JUNCTION        1.67          2.600        0.000
  
  
  *********************
  Node Flooding Summary
  *********************
  
  Flooding refers to all water that overflows a node, whether it ponds or not.
  --------------------------------------------------------------------------
                                                             Total   Maximum
                                 Maximum   Time of Max       Flood    Ponded
                        Hours       Rate    Occurrence      Volume     Depth
  Node                 Flooded       LPS   days hr:min    10^6 ltr    Meters
  --------------------------------------------------------------------------
  WS02006249              0.15     94.99      0  06:23       0.035     0.000
  WS02006256              2.63    787.77      0  06:23       3.738     0.000
  YS02001751              0.01    137.48      0  02:03       0.000     0.000
  YS02001779              2.32    268.07      0  02:56       0.568     0.000
  YS02001629              0.01      0.99      0  07:50       0.000     0.000
  YS02001644              4.10    909.06      0  02:55       5.857     0.000
  YS02001652              0.01      7.47      0  02:40       0.000     0.000
  YS02001658              0.01     13.51      0  02:40       0.000     0.000
  YS02001649              0.04     32.10      0  02:43       0.002     0.000
  YS02001625              0.06     15.06      0  02:26       0.000     0.000
  YS02001783              0.01    115.65      0  02:04       0.000     0.000
  YS02001790              0.01    250.86      0  02:55       0.000     0.000
  YS02001791              0.01    212.25      0  02:55       0.000     0.000
  YS02001793              0.01    360.91      0  02:54       0.000     0.000
  JK-storage              0.94    692.44      0  02:08       1.212     0.000
  XR-storage              1.29    115.89      0  03:12       0.238     0.000
  
  
  **********************
  Storage Volume Summary
  **********************
  
  --------------------------------------------------------------------------------------------------
                         Average     Avg  Evap Exfil       Maximum     Max    Time of Max    Maximum
                          Volume    Pcnt  Pcnt  Pcnt        Volume    Pcnt     Occurrence    Outflow
  Storage Unit           1000 m3    Full  Loss  Loss       1000 m3    Full    days hr:min        LPS
  --------------------------------------------------------------------------------------------------
  JK-storage               0.130      45     0     0         0.291     100       0  02:03     983.00
  CC-storage               3.210      20     0     0         3.865      25       0  02:51     400.00
  XR-storage               0.664      72     0     0         0.926     100       0  03:12     380.00
  
  
  ***********************
  Outfall Loading Summary
  ***********************
  
  ---------------------------------------------------------------------------------------------------------------------------------
                         Flow       Avg       Max       Total         Total         Total         Total         Total         Total
                         Freq      Flow      Flow      Volume           COD            SS            TN            TP         NH4-N
  Outfall Node           Pcnt       LPS       LPS    10^6 ltr            kg            kg            kg            kg            kg
  ---------------------------------------------------------------------------------------------------------------------------------
  WSC                  100.00    693.14    957.03      17.826      2210.120      3678.606       163.386        19.679       100.107
  ---------------------------------------------------------------------------------------------------------------------------------
  System               100.00    693.14    957.03      17.826      2210.120      3678.606       163.386        19.679       100.107
  
  
  ********************
  Link Flow Summary
  ********************
  
  -----------------------------------------------------------------------------
                                 Maximum  Time of Max   Maximum    Max/    Max/
                                  |Flow|   Occurrence   |Veloc|    Full    Full
  Link                 Type          LPS  days hr:min     m/sec    Flow   Depth
  -----------------------------------------------------------------------------
  WS02003066WSF200     CONDUIT    555.55     0  02:01      2.78    0.09    0.23
  WS02006287WS02006284 CONDUIT    293.80     0  01:41      1.83    0.14    0.26
  WS02006284WS02006280 CONDUIT    293.89     0  01:41      2.07    0.12    0.24
  WS02006280WS02006229 CONDUIT    293.89     0  01:41      3.33    0.06    0.17
  WS02006229WS02006228 CONDUIT    548.99     0  01:57      1.09    1.82    1.00
  WS02006256WS02006235 CONDUIT    261.49     0  06:12      3.70    2.77    1.00
  WS02006253WS02006251 CONDUIT    121.99     0  06:21      0.56    0.37    1.00
  WS02006252WS02006251 CONDUIT    403.10     0  06:23      3.21    1.48    1.00
  WS02006251WS02006249 CONDUIT    420.65     0  06:23      1.14    1.21    1.00
  WS02006249WS02006248 CONDUIT    388.59     0  03:00      1.19    2.13    1.00
  WS02006248WS02006247 CONDUIT    383.00     0  03:01      1.17    0.83    1.00
  WS02006247WS02006245 CONDUIT    378.12     0  03:01      1.15    3.00    1.00
  WS02006245WS02006243 CONDUIT    372.06     0  03:01      1.20    1.10    1.00
  WS02006243WS02006242 CONDUIT    363.39     0  03:01      1.08    0.78    1.00
  WS02006242WS02006240 CONDUIT    354.91     0  03:02      1.02    1.41    1.00
  WS02006240WS02006239 CONDUIT    345.33     0  03:02      1.09    1.09    1.00
  WS02006239WS02006238 CONDUIT    340.91     0  03:02      0.98    1.09    1.00
  WS02006238WS02006235 CONDUIT    341.39     0  03:02      0.97    0.76    1.00
  WS02006235WS02006234 CONDUIT    526.76     0  06:24      1.37    5.56    1.00
  WS02006234WS02006232 CONDUIT    528.26     0  06:24      1.37    1.07    1.00
  WS02006232WS02006231 CONDUIT    527.97     0  06:24      1.37    1.11    1.00
  WS02006231WS02006230 CONDUIT    527.40     0  06:24      1.39    8.00    1.00
  WS02006230WS02006229 CONDUIT    542.17     0  06:24      1.41   12.07    1.00
  WS02006228WS02006109 CONDUIT    548.86     0  01:57      1.09    2.40    1.00
  WS02006116WS02004401 CONDUIT    557.87     0  01:58      0.92    0.77    0.86
  WS02006115WS02006116 CONDUIT    559.30     0  01:58      1.04    0.72    0.78
  WS02006113WS02006111 CONDUIT    572.91     0  01:58      2.48    0.69    0.47
  WS02006112WS02006115 CONDUIT    567.90     0  01:57      0.79    0.34    0.88
  WS02006111WS02006112 CONDUIT    555.13     0  01:57      1.54    0.26    0.68
  WS02006110WS02006113 CONDUIT    550.20     0  01:57      1.30    0.50    0.79
  WS02006109WS02006110 CONDUIT    549.96     0  01:57      1.09    1.06    1.00
  WS02004411WS02004412 CONDUIT    555.87     0  02:00      0.94    0.79    0.70
  WS02004401WS02004402 CONDUIT    557.82     0  01:58      0.94    0.67    0.88
  WS02004413WS02003067 CONDUIT    555.45     0  02:01      1.13    0.24    0.60
  WS02004412WS02004413 CONDUIT    555.63     0  02:01      0.85    0.37    0.79
  WS02004410WS02004411 CONDUIT    556.14     0  02:00      0.95    0.76    0.70
  WS02004409WS02004410 CONDUIT    556.63     0  02:00      1.00    0.72    0.69
  WS02004407WS02004409 CONDUIT    557.23     0  01:59      1.53    0.20    0.49
  WS02004406WS02004407 CONDUIT    557.32     0  01:59      1.06    0.25    0.63
  WS02004405WS02004406 CONDUIT    557.41     0  01:59      0.86    1.10    0.97
  WS02004404WS02004405 CONDUIT    557.34     0  01:59      1.09    5.46    0.97
  WS02004403WS02004404 CONDUIT    557.25     0  01:59      0.96    0.40    0.94
  WS02004402WS02004403 CONDUIT    557.28     0  01:59      0.97    0.80    0.90
  WS02004139WS02001211 CONDUIT    382.07     0  03:01      0.90    0.48    0.60
  WS02004138WS02004139 CONDUIT    394.13     0  00:00      3.62    0.08    0.44
  WS02003067WS02003066 CONDUIT    555.51     0  02:01      1.23    0.18    0.42
  WS02001213WS02003059 CONDUIT    396.58     0  03:00      0.89    0.65    0.78
  WS02001212WS02001213 CONDUIT    393.33     0  03:01      1.32    0.61    0.48
  WS02001211WS02001212 CONDUIT    391.43     0  03:01      0.78    0.30    0.65
  WS02003072WS02003073 CONDUIT    955.41     0  02:03      1.74    2.06    0.49
  WS02003069WS02003072 CONDUIT    955.47     0  02:03      1.63    0.46    0.51
  WS02003060WS02003069 CONDUIT    955.38     0  02:02      1.87    0.37    0.46
  WS02003059WS02003060 CONDUIT    400.90     0  03:00      0.95    0.26    0.67
  HS02004901HS02004770 CONDUIT     13.98     0  01:36      0.07    0.05    0.36
  HS02004876HS02004881 CONDUIT     53.62     0  01:41      0.78    0.57    0.10
  HS02004870HS02004876 CONDUIT     42.88     0  01:42      0.54    0.03    0.11
  HS02004842HS02004848 CONDUIT      8.57     0  01:56      0.04    0.00    0.29
  HS02004837HS02004842 CONDUIT      8.74     0  01:59      0.42    0.01    0.30
  HS02004830HS02004837 CONDUIT     32.50     0  01:42      0.50    0.03    0.09
  HS02004824HS02004830 CONDUIT     32.65     0  01:43      0.54    0.04    0.09
  HS02004817HS02004824 CONDUIT     58.68     0  01:53      0.19    0.03    0.44
  HS02004770HS02004777 CONDUIT     72.60     0  01:37      0.28    0.13    0.37
  HS02004799HS02004480 CONDUIT    182.94     0  01:38      0.70    0.23    0.37
  HS02004792HS02004799 CONDUIT    166.64     0  01:38      0.80    0.10    0.30
  HS02004788HS02004792 CONDUIT     96.77     0  01:39      0.94    0.06    0.15
  HS02004785HS02004788 CONDUIT     72.61     0  01:39      0.60    0.55    0.17
  HS02004777HS02004785 CONDUIT     72.49     0  01:38      0.34    0.09    0.31
  HS02004480HS02004478 CONDUIT    216.95     0  01:39      1.11    0.91    0.28
  HS02004479HS02004480 CONDUIT     34.42     0  01:41      0.37    0.03    0.36
  HS02004862HS02004870 CONDUIT     32.10     0  01:42      0.56    0.03    0.08
  HS02004848HS02004852 CONDUIT     13.91     0  01:42      0.38    0.02    0.05
  HS02004856HS02004862 CONDUIT     21.94     0  01:42      0.41    0.02    0.08
  HS02004852HS02004856 CONDUIT     13.90     0  01:43      0.18    0.02    0.11
  HS02004802HS02004478 CONDUIT     78.95     0  01:46      0.38    0.07    0.30
  HS02004478WS02006287 CONDUIT    293.83     0  01:41      1.53    0.08    0.21
  HS02004817HS02004807 CONDUIT     59.61     0  01:53      0.15    0.04    0.57
  HS02004807HS02004802 CONDUIT     78.60     0  01:45      0.32    0.15    0.35
  YS02001759YS02001757 CONDUIT    449.98     0  02:13      0.57    0.32    1.00
  YS02001762YS02001759 CONDUIT    241.54     0  02:13      0.31    0.28    1.00
  YS02001765YS02001762 CONDUIT    237.51     0  02:13      0.30    0.22    1.00
  YS02001770YS02001767 CONDUIT    229.57     0  02:13      0.42    0.91    1.00
  YS02001774YS02001770 CONDUIT    267.85     0  02:56      0.35    0.17    1.00
  YS02001779YS02001774 CONDUIT    268.13     0  02:56      0.34    0.14    1.00
  YS02001649YS02001757 CONDUIT    687.90     0  02:10      0.88    0.42    1.00
  YS02001767YS02001765 CONDUIT    233.39     0  02:13      0.40    0.29    1.00
  YS02006561YS02001783 CONDUIT    758.43     0  02:20      2.11    0.39    0.81
  YS02001783YS02001784 CONDUIT    771.19     0  02:20      1.62    1.06    1.00
  YS02001784YS02001785 CONDUIT    786.43     0  02:21      1.76    1.83    1.00
  YS02001788YS02001790 CONDUIT    858.65     0  02:20      2.31    0.63    1.00
  YS02001790YS02001791 CONDUIT    878.90     0  02:21      2.79    0.96    1.00
  YS02001791YS02001793 CONDUIT    913.24     0  02:21      5.65    0.39    1.00
  YS02001910YS02001907 CONDUIT    252.61     0  02:20      0.49    0.14    0.93
  YS02001786YS02001788 CONDUIT    827.76     0  02:21      2.22    1.59    1.00
  YS02001915YS02001910 CONDUIT    249.28     0  02:20      0.65    0.12    0.76
  YS02001918YS02001915 CONDUIT    104.64     0  03:02      0.44    0.06    0.48
  YS02001923YS02001920 CONDUIT     80.37     0  02:59      0.63    0.04    0.25
  YS02001926YS02001923 CONDUIT     80.33     0  02:59      0.71    0.11    0.20
  YS02001929YS02001926 CONDUIT     80.29     0  02:59      0.77    0.04    0.19
  YS02001920YS02001918 CONDUIT     91.99     0  03:02      0.62    0.09    0.34
  YS02001629YS02163301 CONDUIT    184.74     0  02:09      0.24    0.23    1.00
  YS02001619YS02001622 CONDUIT    168.02     0  02:02      0.70    0.25    1.00
  YS02001622YS02001625 CONDUIT    167.44     0  02:02      0.46    0.09    1.00
  YS02001625YS02001629 CONDUIT    167.49     0  02:02      0.28    0.08    1.00
  YS02163301YS02001633 CONDUIT    184.18     0  02:07      0.23    0.17    1.00
  YS02163601YS02164001 CONDUIT    345.39     0  02:18      0.44    0.31    1.00
  YS02164001YS02001641 CONDUIT    350.61     0  02:18      0.45    0.48    1.00
  YS02001641YS02001644 CONDUIT    353.47     0  02:18      0.45    1.14    1.00
  YS02001647YS02001649 CONDUIT    516.45     0  02:18      0.66    0.27    1.00
  YS02006553YS02006556 CONDUIT    533.64     0  02:20      0.68    0.46    1.00
  YS02006556YS02006558 CONDUIT    533.60     0  02:20      0.68    0.42    1.00
  YSB6556YSB1171       CONDUIT     19.41     0  01:42      0.09    0.02    0.63
  YS02001907YS02006553 CONDUIT    533.57     0  02:20      0.59    0.63    1.00
  YS02006558YS02006561 CONDUIT    756.19     0  02:20      3.31    1.67    0.89
  YS02001633YS02163601 CONDUIT    342.86     0  02:18      0.44    0.36    1.00
  YS02001644YS02001647 CONDUIT    514.85     0  02:18      0.66    0.30    1.00
  YS02001745YS02001748 CONDUIT    360.02     0  02:15      1.56    0.14    0.94
  YS02001748YS02001751 CONDUIT    347.70     0  02:01      1.17    0.18    1.00
  YS02001751YS02001754 CONDUIT    207.90     0  02:01      1.01    0.10    1.00
  YS02001754YS02001757 CONDUIT    210.40     0  02:01      0.33    0.08    1.00
  YS02001882YS02001884 CONDUIT     19.63     0  03:02      0.16    0.02    0.70
  YS02001884YS02001887 CONDUIT     27.69     0  03:02      0.12    0.04    0.79
  YS02001890YS02001895 CONDUIT    278.19     0  02:07      0.45    0.13    0.76
  YS02001895YS02001898 CONDUIT    276.97     0  02:07      0.58    0.48    0.62
  YS02001898YS02001901 CONDUIT    279.67     0  02:20      0.49    0.18    0.70
  YS02001901YS02001904 CONDUIT    280.56     0  02:21      0.46    0.44    0.75
  YS02001904YS02001907 CONDUIT    284.76     0  02:21      0.40    0.10    0.87
  YS02001887YS02001890 CONDUIT    274.78     0  02:06      0.40    0.47    0.85
  YS02001652YS02001649 CONDUIT    254.20     0  02:09      0.72    0.13    1.00
  YS02001655YS02001652 CONDUIT    251.99     0  02:09      1.08    0.12    1.00
  YS02001658YS02001655 CONDUIT    314.81     0  01:57      1.35    0.13    1.00
  YS02001661YS02001658 CONDUIT    585.78     0  02:09      1.65    0.23    1.00
  YS02001664YS02001661 CONDUIT    535.52     0  02:33      1.51    0.17    0.72
  YSB1154YSB6556       CONDUIT     19.20     0  01:39      0.15    0.03    0.52
  YSB1174YSB1171       CONDUIT     15.50     0  01:36      0.06    0.02    0.64
  YSB1171HS02004479    CONDUIT     34.23     0  01:40      0.54    0.02    0.50
  HS02004881HS02006253 CONDUIT     59.46     0  01:41      1.96    0.01    0.50
  YS02001793JiankangQianchi CONDUIT    932.76     0  02:53     14.92    0.07    1.00
  YS02001757CaochengTiaoxuchi CONDUIT   1246.03     0  02:13      2.23    0.55    1.00
  WSF200WS02003060     CONDUIT    555.67     0  02:01      1.60    0.12    0.35
  1                    CONDUIT    957.03     0  02:04      3.29    0.33    0.40
  CC-Pump-1            PUMP       200.00     0  03:20              1.00
  CC-Pump-2            PUMP       200.00     0  06:20              1.00
  JK-Pump-1            PUMP       300.00     0  02:20              1.00
  JK-Pump-2            PUMP       683.00     0  02:20              1.00
  XR-Pump-1            PUMP        95.00     0  00:00              1.00
  XR-Pump-2            PUMP        95.00     0  00:00              1.00
  XR-Pump-3            PUMP        95.00     0  00:00              1.00
  XR-Pump-4            PUMP        95.00     0  00:00              1.00
  
  
  ***************************
  Flow Classification Summary
  ***************************
  
  -------------------------------------------------------------------------------------
                      Adjusted    ---------- Fraction of Time in Flow Class ---------- 
                       /Actual         Up    Down  Sub   Sup   Up    Down  Norm  Inlet 
  Conduit               Length    Dry  Dry   Dry   Crit  Crit  Crit  Crit  Ltd   Ctrl  
  -------------------------------------------------------------------------------------
  WS02003066WSF200        1.00   0.01  0.04  0.00  0.00  0.96  0.00  0.00  0.73  0.00
  WS02006287WS02006284    1.00   0.03  0.01  0.00  0.57  0.39  0.00  0.00  0.74  0.00
  WS02006284WS02006280    1.00   0.04  0.00  0.00  0.00  0.00  0.00  0.96  0.00  0.00
  WS02006280WS02006229    1.00   0.04  0.00  0.00  0.00  0.00  0.00  0.96  0.00  0.00
  WS02006229WS02006228    1.00   0.00  0.00  0.00  1.00  0.00  0.00  0.00  0.01  0.00
  WS02006256WS02006235    1.00   0.02  0.00  0.00  0.98  0.00  0.00  0.00  0.00  0.00
  WS02006253WS02006251    1.00   0.01  0.02  0.00  0.95  0.00  0.01  0.00  0.00  0.00
  WS02006252WS02006251    1.00   0.18  0.00  0.00  0.02  0.00  0.80  0.00  0.00  0.00
  WS02006251WS02006249    1.00   0.00  0.00  0.00  1.00  0.00  0.00  0.00  0.33  0.00
  WS02006249WS02006248    1.00   0.00  0.00  0.00  0.86  0.00  0.14  0.00  0.00  0.00
  WS02006248WS02006247    1.00   0.01  0.00  0.00  0.97  0.00  0.00  0.02  0.20  0.00
  WS02006247WS02006245    1.00   0.01  0.00  0.00  0.95  0.00  0.00  0.05  0.00  0.00
  WS02006245WS02006243    1.00   0.01  0.00  0.00  0.91  0.00  0.00  0.08  0.02  0.00
  WS02006243WS02006242    1.00   0.01  0.00  0.00  0.97  0.00  0.00  0.02  0.23  0.00
  WS02006242WS02006240    1.00   0.01  0.01  0.00  0.96  0.00  0.02  0.00  0.00  0.00
  WS02006240WS02006239    1.00   0.02  0.00  0.00  0.94  0.00  0.00  0.04  0.02  0.00
  WS02006239WS02006238    1.00   0.02  0.00  0.00  0.98  0.00  0.00  0.00  0.03  0.00
  WS02006238WS02006235    1.00   0.02  0.00  0.00  0.98  0.00  0.00  0.00  0.00  0.00
  WS02006235WS02006234    1.00   0.02  0.00  0.00  0.97  0.00  0.02  0.00  0.00  0.00
  WS02006234WS02006232    1.00   0.02  0.00  0.00  0.98  0.00  0.00  0.00  0.00  0.00
  WS02006232WS02006231    1.00   0.02  0.00  0.00  0.98  0.00  0.00  0.00  0.00  0.00
  WS02006231WS02006230    1.00   0.02  0.00  0.00  0.60  0.00  0.38  0.00  0.00  0.00
  WS02006230WS02006229    1.00   0.00  0.00  0.00  0.99  0.00  0.00  0.01  0.00  0.00
  WS02006228WS02006109    1.00   0.00  0.00  0.00  1.00  0.00  0.00  0.00  0.01  0.00
  WS02006116WS02004401    1.00   0.03  0.00  0.00  0.97  0.00  0.00  0.00  0.00  0.00
  WS02006115WS02006116    1.00   0.03  0.00  0.00  0.97  0.00  0.00  0.00  0.00  0.00
  WS02006113WS02006111    1.00   0.02  0.00  0.00  0.01  0.98  0.00  0.00  0.25  0.00
  WS02006112WS02006115    1.00   0.02  0.01  0.00  0.97  0.00  0.00  0.00  0.00  0.00
  WS02006111WS02006112    1.00   0.02  0.00  0.00  0.97  0.00  0.00  0.00  0.92  0.00
  WS02006110WS02006113    1.00   0.00  0.01  0.00  0.98  0.00  0.00  0.00  0.00  0.00
  WS02006109WS02006110    1.00   0.00  0.00  0.00  0.99  0.00  0.00  0.00  0.00  0.00
  WS02004411WS02004412    1.00   0.03  0.00  0.00  0.97  0.00  0.00  0.00  0.00  0.00
  WS02004401WS02004402    1.00   0.03  0.00  0.00  0.97  0.00  0.00  0.00  0.00  0.00
  WS02004413WS02003067    1.00   0.04  0.00  0.00  0.00  0.00  0.96  0.00  0.00  0.00
  WS02004412WS02004413    1.00   0.04  0.00  0.00  0.96  0.00  0.00  0.00  0.00  0.00
  WS02004410WS02004411    1.00   0.03  0.00  0.00  0.97  0.00  0.00  0.00  0.00  0.00
  WS02004409WS02004410    1.00   0.03  0.00  0.00  0.97  0.00  0.00  0.00  0.00  0.00
  WS02004407WS02004409    1.00   0.03  0.00  0.00  0.96  0.00  0.00  0.00  0.89  0.00
  WS02004406WS02004407    1.00   0.00  0.03  0.00  0.97  0.00  0.00  0.00  0.00  0.00
  WS02004405WS02004406    1.00   0.00  0.00  0.00  1.00  0.00  0.00  0.00  0.04  0.00
  WS02004404WS02004405    1.00   0.00  0.00  0.00  1.00  0.00  0.00  0.00  0.00  0.00
  WS02004403WS02004404    1.00   0.00  0.03  0.00  0.97  0.00  0.00  0.00  0.00  0.00
  WS02004402WS02004403    1.00   0.03  0.00  0.00  0.97  0.00  0.00  0.00  0.00  0.00
  WS02004139WS02001211    1.00   0.00  0.00  0.00  1.00  0.00  0.00  0.00  0.00  0.00
  WS02004138WS02004139    1.00   0.00  0.00  0.00  1.00  0.00  0.00  0.00  1.00  0.00
  WS02003067WS02003066    1.00   0.04  0.00  0.00  0.96  0.00  0.00  0.00  0.00  0.00
  WS02001213WS02003059    1.00   0.00  0.00  0.00  1.00  0.00  0.00  0.00  0.00  0.00
  WS02001212WS02001213    1.00   0.00  0.00  0.00  0.94  0.00  0.06  0.00  0.00  0.00
  WS02001211WS02001212    1.00   0.00  0.00  0.00  1.00  0.00  0.00  0.00  0.00  0.00
  WS02003072WS02003073    1.00   0.00  0.00  0.00  0.00  0.00  0.00  1.00  0.00  0.00
  WS02003069WS02003072    1.00   0.00  0.00  0.00  1.00  0.00  0.00  0.00  0.06  0.00
  WS02003060WS02003069    1.00   0.00  0.00  0.00  0.99  0.01  0.00  0.00  0.05  0.00
  WS02003059WS02003060    1.00   0.00  0.00  0.00  1.00  0.00  0.00  0.00  0.00  0.00
  HS02004901HS02004770    1.00   0.04  0.00  0.00  0.96  0.00  0.00  0.00  0.00  0.00
  HS02004876HS02004881    1.00   0.01  0.00  0.00  0.99  0.00  0.00  0.00  0.00  0.00
  HS02004870HS02004876    1.00   0.00  0.00  0.00  1.00  0.00  0.00  0.00  0.95  0.00
  HS02004842HS02004848    1.00   0.00  0.04  0.00  0.96  0.00  0.00  0.00  0.58  0.00
  HS02004837HS02004842    1.00   0.00  0.00  0.00  1.00  0.00  0.00  0.00  0.11  0.00
  HS02004830HS02004837    1.00   0.00  0.00  0.00  1.00  0.00  0.00  0.00  0.99  0.00
  HS02004824HS02004830    1.00   0.00  0.00  0.00  1.00  0.00  0.00  0.00  0.00  0.00
  HS02004817HS02004824    1.00   0.00  0.00  0.00  1.00  0.00  0.00  0.00  1.00  0.00
  HS02004770HS02004777    1.00   0.00  0.04  0.00  0.96  0.00  0.00  0.00  0.01  0.00
  HS02004799HS02004480    1.00   0.00  0.01  0.00  0.95  0.00  0.04  0.00  0.00  0.00
  HS02004792HS02004799    1.00   0.00  0.00  0.00  1.00  0.00  0.00  0.00  0.98  0.00
  HS02004788HS02004792    1.00   0.00  0.00  0.00  1.00  0.00  0.00  0.00  0.98  0.00
  HS02004785HS02004788    1.00   0.00  0.00  0.00  1.00  0.00  0.00  0.00  0.00  0.00
  HS02004777HS02004785    1.00   0.00  0.00  0.00  1.00  0.00  0.00  0.00  0.11  0.00
  HS02004480HS02004478    1.00   0.04  0.00  0.00  0.62  0.00  0.00  0.34  0.00  0.00
  HS02004479HS02004480    1.00   0.01  0.00  0.00  0.99  0.00  0.00  0.00  0.11  0.00
  HS02004862HS02004870    1.00   0.00  0.00  0.00  1.00  0.00  0.00  0.00  0.02  0.00
  HS02004848HS02004852    1.00   0.04  0.00  0.00  0.96  0.00  0.00  0.00  0.79  0.00
  HS02004856HS02004862    1.00   0.00  0.05  0.00  0.95  0.00  0.00  0.00  0.84  0.00
  HS02004852HS02004856    1.00   0.04  0.00  0.00  0.96  0.00  0.00  0.00  0.86  0.00
  HS02004802HS02004478    1.00   0.04  0.00  0.00  0.96  0.00  0.00  0.00  0.02  0.00
  HS02004478WS02006287    1.00   0.05  0.00  0.00  0.81  0.14  0.00  0.00  0.72  0.00
  HS02004817HS02004807    1.00   0.00  0.04  0.00  0.96  0.00  0.00  0.00  0.01  0.00
  HS02004807HS02004802    1.00   0.04  0.00  0.00  0.96  0.00  0.00  0.00  0.00  0.00
  YS02001759YS02001757    1.00   0.00  0.00  0.00  1.00  0.00  0.00  0.00  0.15  0.00
  YS02001762YS02001759    1.00   0.00  0.00  0.00  1.00  0.00  0.00  0.00  0.02  0.00
  YS02001765YS02001762    1.00   0.00  0.00  0.00  1.00  0.00  0.00  0.00  0.13  0.00
  YS02001770YS02001767    1.00   0.00  0.00  0.00  1.00  0.00  0.00  0.00  0.00  0.00
  YS02001774YS02001770    1.00   0.00  0.04  0.00  0.96  0.00  0.00  0.00  0.01  0.00
  YS02001779YS02001774    1.00   0.00  0.00  0.00  1.00  0.00  0.00  0.00  0.16  0.00
  YS02001649YS02001757    1.00   0.00  0.00  0.00  1.00  0.00  0.00  0.00  0.15  0.00
  YS02001767YS02001765    1.00   0.00  0.00  0.00  1.00  0.00  0.00  0.00  0.00  0.00
  YS02006561YS02001783    1.00   0.05  0.00  0.00  0.20  0.74  0.00  0.00  0.57  0.00
  YS02001783YS02001784    1.00   0.00  0.05  0.00  0.95  0.00  0.00  0.00  0.00  0.00
  YS02001784YS02001785    1.00   0.00  0.00  0.00  1.00  0.00  0.00  0.00  0.16  0.00
  YS02001788YS02001790    1.00   0.00  0.00  0.00  0.29  0.71  0.00  0.00  0.50  0.00
  YS02001790YS02001791    1.00   0.00  0.00  0.00  0.25  0.75  0.00  0.00  0.56  0.00
  YS02001791YS02001793    1.00   0.00  0.00  0.00  0.30  0.70  0.00  0.00  0.03  0.00
  YS02001910YS02001907    1.00   0.00  0.00  0.00  0.99  0.00  0.00  0.01  0.12  0.00
  YS02001786YS02001788    1.00   0.00  0.00  0.00  0.26  0.74  0.00  0.00  0.00  0.00
  YS02001915YS02001910    1.00   0.00  0.00  0.00  0.99  0.01  0.00  0.00  0.13  0.00
  YS02001918YS02001915    1.00   0.00  0.00  0.00  0.99  0.00  0.00  0.00  0.61  0.00
  YS02001923YS02001920    1.00   0.00  0.00  0.00  1.00  0.00  0.00  0.00  1.00  0.00
  YS02001926YS02001923    1.00   0.00  0.02  0.00  0.00  0.00  0.98  0.00  0.00  0.00
  YS02001929YS02001926    1.00   0.00  0.04  0.00  0.96  0.00  0.00  0.00  0.87  0.00
  YS02001920YS02001918    1.00   0.00  0.00  0.00  1.00  0.00  0.00  0.00  0.00  0.00
  YS02001629YS02163301    1.00   0.04  0.00  0.00  0.95  0.00  0.00  0.00  0.00  0.00
  YS02001619YS02001622    1.00   0.04  0.00  0.00  0.96  0.00  0.00  0.00  0.00  0.00
  YS02001622YS02001625    1.00   0.04  0.00  0.00  0.96  0.00  0.00  0.00  0.03  0.00
  YS02001625YS02001629    1.00   0.04  0.01  0.00  0.93  0.00  0.01  0.00  0.00  0.00
  YS02163301YS02001633    1.00   0.00  0.04  0.00  0.96  0.00  0.00  0.00  0.00  0.00
  YS02163601YS02164001    1.00   0.00  0.02  0.00  0.98  0.00  0.00  0.00  0.00  0.00
  YS02164001YS02001641    1.00   0.00  0.02  0.00  0.98  0.00  0.00  0.00  0.05  0.00
  YS02001641YS02001644    1.00   0.00  0.00  0.00  1.00  0.00  0.00  0.00  0.00  0.00
  YS02001647YS02001649    1.00   0.00  0.05  0.00  0.95  0.00  0.00  0.00  0.01  0.00
  YS02006553YS02006556    1.00   0.00  0.00  0.00  1.00  0.00  0.00  0.00  0.03  0.00
  YS02006556YS02006558    1.00   0.00  0.00  0.00  1.00  0.00  0.00  0.00  0.00  0.00
  YSB6556YSB1171          1.00   0.01  0.03  0.00  0.96  0.00  0.00  0.00  0.00  0.00
  YS02001907YS02006553    1.00   0.00  0.01  0.00  0.99  0.00  0.00  0.00  0.00  0.00
  YS02006558YS02006561    1.00   0.05  0.00  0.00  0.00  0.95  0.00  0.00  0.57  0.00
  YS02001633YS02163601    1.00   0.00  0.00  0.00  1.00  0.00  0.00  0.00  0.14  0.00
  YS02001644YS02001647    1.00   0.00  0.05  0.00  0.95  0.00  0.00  0.00  0.00  0.00
  YS02001745YS02001748    1.00   0.00  0.00  0.00  0.92  0.00  0.00  0.08  0.03  0.00
  YS02001748YS02001751    1.00   0.00  0.00  0.00  0.97  0.03  0.00  0.00  0.14  0.00
  YS02001751YS02001754    1.00   0.00  0.00  0.00  0.94  0.00  0.00  0.06  0.01  0.00
  YS02001754YS02001757    1.00   0.00  0.00  0.00  1.00  0.00  0.00  0.00  0.16  0.00
  YS02001882YS02001884    1.00   0.04  0.00  0.00  0.95  0.00  0.00  0.00  0.00  0.00
  YS02001884YS02001887    1.00   0.02  0.02  0.00  0.96  0.00  0.00  0.00  0.00  0.00
  YS02001890YS02001895    1.00   0.00  0.05  0.00  0.95  0.00  0.00  0.00  0.00  0.00
  YS02001895YS02001898    1.00   0.05  0.00  0.00  0.95  0.00  0.01  0.00  0.00  0.00
  YS02001898YS02001901    1.00   0.05  0.00  0.00  0.95  0.00  0.00  0.00  0.01  0.00
  YS02001901YS02001904    1.00   0.05  0.00  0.00  0.95  0.00  0.00  0.00  0.00  0.00
  YS02001904YS02001907    1.00   0.00  0.05  0.00  0.95  0.00  0.00  0.00  0.00  0.00
  YS02001887YS02001890    1.00   0.00  0.00  0.00  0.99  0.00  0.01  0.00  0.00  0.00
  YS02001652YS02001649    1.00   0.00  0.00  0.00  1.00  0.00  0.00  0.00  0.15  0.00
  YS02001655YS02001652    1.00   0.00  0.00  0.00  0.94  0.00  0.00  0.06  0.02  0.00
  YS02001658YS02001655    1.00   0.00  0.04  0.00  0.93  0.02  0.00  0.00  0.02  0.00
  YS02001661YS02001658    1.00   0.04  0.00  0.00  0.92  0.04  0.00  0.00  0.03  0.00
  YS02001664YS02001661    1.00   0.04  0.00  0.00  0.91  0.05  0.00  0.00  0.16  0.00
  YSB1154YSB6556          1.00   0.04  0.00  0.00  0.96  0.00  0.00  0.00  0.01  0.00
  YSB1174YSB1171          1.00   0.01  0.02  0.00  0.97  0.00  0.00  0.00  0.00  0.00
  YSB1171HS02004479       1.00   0.01  0.00  0.00  0.99  0.00  0.00  0.00  0.10  0.00
  HS02004881HS02006253    1.00   0.01  0.00  0.00  0.47  0.03  0.00  0.48  0.30  0.00
  YS02001793JiankangQianchi    1.00   0.00  0.00  0.00  0.70  0.30  0.00  0.00  0.52  0.00
  YS02001757CaochengTiaoxuchi    1.00   0.00  0.07  0.00  0.93  0.00  0.00  0.00  0.00  0.00
  WSF200WS02003060        1.00   0.00  0.01  0.00  0.99  0.00  0.00  0.00  0.58  0.00
  1                       1.00   0.00  0.00  0.00  0.00  1.00  0.00  0.00  0.53  0.00
  
  
  *************************
  Conduit Surcharge Summary
  *************************
  
  ----------------------------------------------------------------------------
                                                           Hours        Hours 
                         --------- Hours Full --------   Above Full   Capacity
  Conduit                Both Ends  Upstream  Dnstream   Normal Flow   Limited
  ----------------------------------------------------------------------------
  WS02006229WS02006228        2.11      2.23      2.11      3.70         2.11
  WS02006256WS02006235        5.36      5.36      7.06      3.79         0.01
  WS02006253WS02006251        0.36      0.36      0.37      0.01         0.02
  WS02006252WS02006251        0.47      0.47      0.93      0.80         0.01
  WS02006251WS02006249        0.36      0.36      0.39      0.35         0.13
  WS02006249WS02006248        0.37      0.37      0.39      1.60         0.01
  WS02006248WS02006247        0.39      0.39      0.42      0.01         0.01
  WS02006247WS02006245        0.42      0.43      0.42      2.36         0.42
  WS02006245WS02006243        0.43      0.43      0.46      0.14         0.04
  WS02006243WS02006242        0.47      0.47      0.74      0.01         0.01
  WS02006242WS02006240        0.62      0.62      0.88      0.85         0.01
  WS02006240WS02006239        0.69      0.69      0.86      0.32         0.16
  WS02006239WS02006238        1.00      1.00      1.16      0.37         0.20
  WS02006238WS02006235        1.15      1.15      1.32      0.01         0.01
  WS02006235WS02006234        0.88      0.88      1.08      5.20         0.01
  WS02006234WS02006232        0.97      0.97      1.54      0.28         0.28
  WS02006232WS02006231        0.36      0.36      1.54      0.35         0.01
  WS02006231WS02006230        0.21      0.21      0.39      5.53         0.01
  WS02006230WS02006229        2.93      3.29      2.93      6.04         2.93
  WS02006228WS02006109        2.16      2.54      2.16      4.49         2.16
  WS02006112WS02006115        0.01      0.01      0.66      0.01         0.01
  WS02006111WS02006112        0.01      0.01      3.86      0.01         0.01
  WS02006110WS02006113        0.01      0.01      2.36      0.01         0.01
  WS02006109WS02006110        0.44      0.44      2.54      0.45         0.01
  WS02004405WS02004406        0.01      0.01      0.01      0.52         0.01
  WS02004404WS02004405        0.01      0.01      0.01      5.76         0.01
  WS02003072WS02003073        0.01      0.01      0.01      6.31         0.01
  YS02001759YS02001757        6.16      6.16      6.20      0.01         0.01
  YS02001762YS02001759        6.15      6.15      6.16      0.01         0.01
  YS02001765YS02001762        6.12      6.12      6.15      0.01         0.01
  YS02001770YS02001767        6.11      6.11      6.11      0.01         0.77
  YS02001774YS02001770        6.10      6.10      6.13      0.01         0.01
  YS02001779YS02001774        5.94      5.94      6.13      0.01         0.01
  YS02001649YS02001757        6.15      6.15      6.20      0.01         0.01
  YS02001767YS02001765        6.11      6.11      6.12      0.01         0.01
  YS02006561YS02001783        0.01      0.01      0.43      0.01         0.01
  YS02001783YS02001784        0.43      0.43      0.52      0.08         0.11
  YS02001784YS02001785        0.42      0.52      0.42      1.88         0.41
  YS02001788YS02001790        0.37      0.37      1.25      0.01         0.01
  YS02001790YS02001791        1.25      1.25      1.38      0.01         0.01
  YS02001791YS02001793        1.38      1.38      1.78      0.01         0.01
  YS02001910YS02001907        0.01      0.01      1.30      0.01         0.01
  YS02001786YS02001788        0.37      0.42      0.37      1.50         0.36
  YS02001629YS02163301        6.10      6.10      6.10      0.01         0.01
  YS02001619YS02001622        5.73      5.73      5.78      0.01         0.01
  YS02001622YS02001625        5.78      5.78      6.06      0.01         0.01
  YS02001625YS02001629        5.74      5.74      6.06      0.01         0.01
  YS02163301YS02001633        6.10      6.10      6.12      0.01         0.01
  YS02163601YS02164001        6.12      6.12      6.14      0.01         0.01
  YS02164001YS02001641        6.12      6.12      6.13      0.01         0.02
  YS02001641YS02001644        6.13      6.13      6.13      0.37         1.12
  YS02001647YS02001649        6.02      6.02      6.15      0.01         0.01
  YS02006553YS02006556        0.01      0.01      1.38      0.01         0.01
  YS02006556YS02006558        0.72      0.72      1.47      0.01         0.01
  YS02001907YS02006553        1.90      1.90      2.09      0.01         0.01
  YS02006558YS02006561        0.01      0.01      0.01      1.75         0.01
  YS02001633YS02163601        6.12      6.12      6.14      0.01         0.01
  YS02001644YS02001647        6.01      6.01      6.13      0.01         0.01
  YS02001745YS02001748        0.01      0.01      5.47      0.01         0.01
  YS02001748YS02001751        5.53      5.53      5.74      0.01         0.01
  YS02001751YS02001754        5.74      5.74      5.95      0.01         0.01
  YS02001754YS02001757        6.00      6.00      6.20      0.01         0.01
  YS02001904YS02001907        0.01      0.01      1.40      0.01         0.01
  YS02001652YS02001649        6.04      6.04      6.15      0.01         0.01
  YS02001655YS02001652        5.76      5.76      5.98      0.01         0.01
  YS02001658YS02001655        5.51      5.51      5.76      0.01         0.01
  YS02001661YS02001658        0.15      0.15      5.51      0.01         0.01
  YS02001664YS02001661        0.01      0.01      0.65      0.01         0.01
  HS02004881HS02006253        0.01      0.01      0.18      0.01         0.01
  YS02001793JiankangQianchi        1.67      1.67      4.73      0.01         0.01
  YS02001757CaochengTiaoxuchi        5.44      5.44      6.20      0.01         0.01
  
  
  ***************
  Pumping Summary
  ***************
  
  ---------------------------------------------------------------------------------------------------------
                                                  Min       Avg       Max     Total     Power    % Time Off
                        Percent   Number of      Flow      Flow      Flow    Volume     Usage    Pump Curve
  Pump                 Utilized   Start-Ups       LPS       LPS       LPS  10^6 ltr     Kw-hr    Low   High
  ---------------------------------------------------------------------------------------------------------
  CC-Pump-1               46.79           6      0.00    125.91    200.00     1.560      1.30    0.0    0.0
  CC-Pump-2               23.39           5      0.00    104.03    200.00     0.720      0.80    0.0    0.0
  JK-Pump-1               53.18           6      0.00    202.88    300.00     2.792     47.82    0.0    0.0
  JK-Pump-2               42.54           5      0.00    356.78    683.00     4.002     64.78    0.0   94.3
  XR-Pump-1               97.87           2      0.00     94.42     95.00     2.565     31.28    0.0    0.0
  XR-Pump-2               97.87           2      0.00     94.42     95.00     2.565     31.28    0.0    0.0
  XR-Pump-3               97.87           2      0.00     92.91     95.00     2.508     30.10    0.0    0.0
  XR-Pump-4               97.87           2      0.00     92.91     95.00     2.508     30.10    0.0    0.0
  
  
  ***************************
  Link Pollutant Load Summary
  ***************************
  
  ------------------------------------------------------------------------------------------
                                 COD            SS            TN            TP         NH4-N
  Link                            kg            kg            kg            kg            kg
  ------------------------------------------------------------------------------------------
  WS02003066WSF200           544.351       977.691        15.916         1.463         8.580
  WS02006287WS02006284       192.697       348.296         7.869         0.835         4.505
  WS02006284WS02006280       193.196       349.093         7.917         0.841         4.535
  WS02006280WS02006229       193.169       349.046         7.914         0.840         4.534
  WS02006229WS02006228       550.319       988.392        15.762         1.431         8.455
  WS02006256WS02006235       149.699       265.505         3.488         0.277         1.785
  WS02006253WS02006251        37.208        69.876         0.894         0.070         0.454
  WS02006252WS02006251       182.678       326.049         3.767         0.267         1.837
  WS02006251WS02006249       212.653       383.137         4.503         0.325         2.212
  WS02006249WS02006248       209.356       377.247         4.435         0.321         2.179
  WS02006248WS02006247       209.698       377.883         4.443         0.321         2.183
  WS02006247WS02006245       209.518       377.562         4.440         0.321         2.182
  WS02006245WS02006243       208.877       376.481         4.421         0.319         2.172
  WS02006243WS02006242       209.894       378.331         4.447         0.322         2.185
  WS02006242WS02006240       210.730       379.795         4.458         0.322         2.189
  WS02006240WS02006239       213.102       383.965         4.517         0.327         2.220
  WS02006239WS02006238       216.839       390.281         4.624         0.336         2.277
  WS02006238WS02006235       219.441       394.524         4.698         0.343         2.317
  WS02006235WS02006234       359.479       643.449         7.920         0.597         3.961
  WS02006234WS02006232       359.291       643.094         7.919         0.597         3.961
  WS02006232WS02006231       358.911       642.408         7.910         0.597         3.956
  WS02006231WS02006230       358.748       642.152         7.907         0.596         3.955
  WS02006230WS02006229       358.575       641.852         7.908         0.597         3.956
  WS02006228WS02006109       549.628       987.205        15.729         1.427         8.435
  WS02006116WS02004401       557.418      1000.265        16.397         1.511         8.850
  WS02006115WS02006116       558.722      1002.541        16.431         1.514         8.868
  WS02006113WS02006111       555.906       997.005        16.435         1.517         8.881
  WS02006112WS02006115       559.894      1004.573        16.478         1.519         8.895
  WS02006111WS02006112       555.397       996.117        16.416         1.515         8.870
  WS02006110WS02006113       556.335       997.736        16.459         1.520         8.895
  WS02006109WS02006110       557.593       999.871        16.531         1.528         8.938
  WS02004411WS02004412       547.355       982.795        16.082         1.482         8.678
  WS02004401WS02004402       556.085       997.949        16.350         1.507         8.824
  WS02004413WS02003067       544.934       978.673        15.949         1.467         8.599
  WS02004412WS02004413       546.192       980.823        16.019         1.475         8.641
  WS02004410WS02004411       548.368       984.515        16.132         1.487         8.708
  WS02004409WS02004410       549.395       986.268        16.180         1.493         8.736
  WS02004407WS02004409       550.296       987.805        16.217         1.496         8.757
  WS02004406WS02004407       550.596       988.312        16.224         1.497         8.761
  WS02004405WS02004406       552.475       991.504        16.322         1.508         8.819
  WS02004404WS02004405       553.897       994.000        16.346         1.509         8.830
  WS02004403WS02004404       553.593       993.622        16.267         1.499         8.778
  WS02004402WS02004403       554.754       995.634        16.310         1.503         8.802
  WS02004139WS02001211      1531.100      2486.137       134.230        16.556        83.238
  WS02004138WS02004139      1538.480      2498.080       134.882        16.637        83.642
  WS02003067WS02003066       544.533       978.007        15.925         1.464         8.585
  WS02001213WS02003059      1562.317      2535.791       137.349        16.948        85.193
  WS02001212WS02001213      1572.460      2552.178       138.258        17.061        85.758
  WS02001211WS02001212      1574.629      2555.671       138.456        17.085        85.882
  WS02003072WS02003073      2206.093      3672.192       162.964        19.626        99.841
  WS02003069WS02003072      2210.873      3679.959       163.382        19.678       100.101
  WS02003060WS02003069      2213.816      3684.769       163.623        19.707       100.250
  WS02003059WS02003060      1558.873      2530.194       137.054        16.912        85.011
  HS02004901HS02004770         6.587        12.284         0.126         0.009         0.059
  HS02004876HS02004881        24.754        47.126         0.595         0.046         0.299
  HS02004870HS02004876        18.723        35.515         0.488         0.039         0.249
  HS02004842HS02004848         3.653         6.694         0.078         0.005         0.036
  HS02004837HS02004842         8.308        14.100         0.550         0.065         0.332
  HS02004830HS02004837        58.060        97.475         4.414         0.536         2.716
  HS02004824HS02004830        58.812        98.680         4.486         0.545         2.761
  HS02004817HS02004824        73.075       126.112         4.785         0.563         2.907
  HS02004770HS02004777        25.087        47.236         0.530         0.035         0.242
  HS02004799HS02004480        88.828       161.656         2.850         0.275         1.542
  HS02004792HS02004799        80.822       145.793         2.750         0.272         1.503
  HS02004788HS02004792        48.375        87.180         1.985         0.207         1.121
  HS02004785HS02004788        26.486        49.466         0.676         0.054         0.335
  HS02004777HS02004785        25.812        48.384         0.614         0.046         0.296
  HS02004480HS02004478       111.502       205.216         3.196         0.298         1.700
  HS02004479HS02004480        26.265        49.346         0.653         0.060         0.347
  HS02004862HS02004870        13.886        25.845         0.393         0.033         0.203
  HS02004848HS02004852         4.921         9.099         0.104         0.007         0.048
  HS02004856HS02004862         8.938        17.022         0.182         0.012         0.085
  HS02004852HS02004856         4.935         9.123         0.104         0.007         0.048
  HS02004802HS02004478        82.222       144.774         4.741         0.545         2.847
  HS02004478WS02006287       192.890       348.609         7.887         0.837         4.516
  HS02004817HS02004807        71.697       123.940         4.641         0.545         2.817
  HS02004807HS02004802        82.362       144.981         4.771         0.549         2.867
  YS02001759YS02001757       266.602       474.473         5.489         0.378         2.692
  YS02001762YS02001759       121.971       218.523         2.736         0.193         1.367
  YS02001765YS02001762       121.455       217.658         2.750         0.195         1.377
  YS02001770YS02001767       118.902       213.560         2.459         0.157         1.192
  YS02001774YS02001770        50.747        92.459         1.028         0.066         0.497
  YS02001779YS02001774        49.974        90.958         1.115         0.079         0.558
  YS02001649YS02001757       306.815       532.824         6.342         0.441         3.059
  YS02001767YS02001765       121.434       217.603         2.766         0.197         1.387
  YS02006561YS02001783       621.304      1101.411        13.992         1.081         7.084
  YS02001783YS02001784       621.228      1101.301        13.988         1.081         7.082
  YS02001784YS02001785       628.592      1113.106        14.701         1.170         7.528
  YS02001788YS02001790       629.241      1114.164        14.773         1.179         7.574
  YS02001790YS02001791       630.347      1115.971        14.874         1.192         7.637
  YS02001791YS02001793       630.253      1115.802        14.870         1.192         7.634
  YS02001910YS02001907       208.121       363.114         5.872         0.488         3.114
  YS02001786YS02001788       628.828      1113.498        14.729         1.174         7.546
  YS02001915YS02001910       208.166       363.159         5.835         0.483         3.089
  YS02001918YS02001915       100.498       167.487         3.544         0.354         1.995
  YS02001923YS02001920        80.614       135.738         1.599         0.111         0.778
  YS02001926YS02001923        80.276       135.205         1.560         0.106         0.754
  YS02001929YS02001926        80.046       134.825         1.529         0.102         0.734
  YS02001920YS02001918       100.509       167.569         3.517         0.351         1.977
  YS02001629YS02163301        86.548       150.087         1.836         0.117         0.853
  YS02001619YS02001622        89.261       154.286         1.903         0.121         0.883
  YS02001622YS02001625        88.246       152.724         1.878         0.119         0.872
  YS02001625YS02001629        87.085       150.984         1.849         0.118         0.859
  YS02163301YS02001633        87.257       151.332         1.847         0.118         0.859
  YS02163601YS02164001       241.354       416.548         4.892         0.342         2.338
  YS02164001YS02001641       241.168       416.243         4.878         0.340         2.329
  YS02001641YS02001644       241.925       417.508         4.885         0.340         2.332
  YS02001647YS02001649       288.777       499.846         5.940         0.411         2.864
  YS02006553YS02006556       448.630       792.760        10.372         0.825         5.314
  YS02006556YS02006558       448.816       793.106        10.337         0.819         5.290
  YSB6556YSB1171              14.807        27.958         0.317         0.027         0.163
  YS02001907YS02006553       448.598       792.704        10.401         0.829         5.334
  YS02006558YS02006561       621.309      1101.403        13.992         1.081         7.085
  YS02001633YS02163601       241.911       417.394         4.869         0.337         2.320
  YS02001644YS02001647       293.299       507.496         6.000         0.416         2.888
  YS02001745YS02001748       126.251       224.133         2.733         0.175         1.334
  YS02001748YS02001751       126.765       224.757         2.907         0.199         1.448
  YS02001751YS02001754       125.906       223.384         2.892         0.198         1.441
  YS02001754YS02001757       126.735       224.666         3.054         0.220         1.547
  YS02001882YS02001884         2.664         4.579         0.053         0.004         0.026
  YS02001884YS02001887         5.955        10.393         0.116         0.009         0.057
  YS02001890YS02001895       241.506       431.100         4.547         0.341         2.228
  YS02001895YS02001898       241.327       430.837         4.541         0.341         2.224
  YS02001898YS02001901       241.232       430.706         4.538         0.341         2.223
  YS02001901YS02001904       241.154       430.614         4.548         0.342         2.230
  YS02001904YS02001907       241.515       431.217         4.603         0.349         2.265
  YS02001887YS02001890       242.321       432.355         4.601         0.348         2.261
  YS02001652YS02001649        77.413       135.911         1.657         0.120         0.779
  YS02001655YS02001652        78.154       137.097         1.678         0.121         0.789
  YS02001658YS02001655        77.787       136.466         1.596         0.110         0.735
  YS02001661YS02001658        82.881       145.495         1.700         0.117         0.783
  YS02001664YS02001661       104.010       181.356         2.153         0.148         0.990
  YSB1154YSB6556              14.382        27.267         0.270         0.021         0.134
  YSB1174YSB1171               9.938        18.931         0.209         0.017         0.106
  YSB1171HS02004479           26.197        49.218         0.659         0.061         0.352
  HS02004881HS02006253        27.940        53.368         0.652         0.049         0.326
  YS02001793JiankangQianchi       629.969      1115.318        14.822         1.185         7.603
  YS02001757CaochengTiaoxuchi       479.184       846.907        10.021         0.705         4.892
  WSF200WS02003060           544.227       977.507        15.906         1.462         8.573
  1                         2210.120      3678.606       163.386        19.679       100.107
  CC-Pump-1                  125.816       224.820         2.581         0.182         1.256
  CC-Pump-2                   56.582       100.772         1.167         0.082         0.569
  JK-Pump-1                  146.126       259.215         3.366         0.265         1.717
  JK-Pump-2                  277.535       496.145         6.295         0.494         3.202
  XR-Pump-1                  390.208       633.487        34.243         4.224        21.236
  XR-Pump-2                  390.208       633.487        34.243         4.224        21.236
  XR-Pump-3                  381.156       618.981        33.390         4.118        20.705
  XR-Pump-4                  381.156       618.981        33.390         4.118        20.705
  

  Analysis begun on:  Sat Jul 10 15:38:04 2021
  Analysis ended on:  Sat Jul 10 15:38:07 2021
  Total elapsed time: 00:00:03