
  EPA STORM WATER MANAGEMENT MODEL - VERSION 5.1 (Build 5.3.0.dev0)
  --------------------------------------------------------------

  WARNING 04: minimum elevation drop used for Conduit WS02004404WS02004405
  WARNING 03: negative offset ignored for Link YS02001904YS02001907
  
  *********************************************************
  NOTE: The summary statistics displayed in this report are
  based on results found at every computational time step,  
  not just on results from each reporting time step.
  *********************************************************
  
  ****************
  Analysis Options
  ****************
  Flow Units ............... LPS
  Process Models:
    Rainfall/Runoff ........ YES
    RDII ................... NO
    Snowmelt ............... NO
    Groundwater ............ NO
    Flow Routing ........... YES
    Ponding Allowed ........ NO
    Water Quality .......... YES
  Infiltration Method ...... HORTON
  Flow Routing Method ...... DYNWAVE
  Surcharge Method ......... EXTRAN
  Starting Date ............ 08/28/2015 08:00:00
  Ending Date .............. 08/28/2015 16:00:00
  Antecedent Dry Days ...... 8.0
  Report Time Step ......... 00:01:00
  Wet Time Step ............ 00:01:00
  Dry Time Step ............ 00:01:00
  Routing Time Step ........ 5.00 sec
  Variable Time Step ....... YES
  Maximum Trials ........... 8
  Number of Threads ........ 4
  Head Tolerance ........... 0.001500 m
  
  
  **************************        Volume         Depth
  Runoff Quantity Continuity     hectare-m            mm
  **************************     ---------       -------
  Total Precipitation ......         7.641        16.729
  Evaporation Loss .........         0.000         0.000
  Infiltration Loss ........         1.187         2.600
  Surface Runoff ...........         5.505        12.052
  Final Storage ............         0.950         2.080
  Continuity Error (%) .....        -0.016
  
  
  **************************           COD            SS            TN            TP         NH4-N
  Runoff Quality Continuity             kg            kg            kg            kg            kg
  **************************    ----------    ----------    ----------    ----------    ----------
  Initial Buildup ..........     41378.656     70582.865      1804.177       168.684      1032.807
  Surface Buildup ..........        32.516        68.499         2.497         0.224         1.426
  Wet Deposition ...........         0.000         0.000         0.000         0.000         0.000
  Sweeping Removal .........         0.000         0.000         0.000         0.000         0.000
  Infiltration Loss ........       128.766       248.591         2.469         0.175         1.182
  BMP Removal ..............         0.000         0.000         0.000         0.000         0.000
  Surface Runoff ...........      5565.309     10652.910       107.374         7.429        51.205
  Remaining Buildup ........     35715.041     59745.900      1696.789       161.300       981.827
  Continuity Error (%) .....         0.005         0.006         0.002         0.002         0.002
  
  
  **************************        Volume        Volume
  Flow Routing Continuity        hectare-m      10^6 ltr
  **************************     ---------     ---------
  Dry Weather Inflow .......         0.630         6.296
  Wet Weather Inflow .......         5.503        55.032
  Groundwater Inflow .......         0.000         0.000
  RDII Inflow ..............         0.000         0.000
  External Inflow ..........         0.105         1.045
  External Outflow .........         2.245        22.449
  Flooding Loss ............         3.552        35.524
  Evaporation Loss .........         0.000         0.000
  Exfiltration Loss ........         0.000         0.000
  Initial Stored Volume ....         0.076         0.761
  Final Stored Volume ......         0.643         6.427
  Continuity Error (%) .....        -2.006
  
  
  **************************           COD            SS            TN            TP         NH4-N
  Quality Routing Continuity            kg            kg            kg            kg            kg
  **************************    ----------    ----------    ----------    ----------    ----------
  Dry Weather Inflow .......      1573.993      2518.389       151.103        18.888        94.440
  Wet Weather Inflow .......      5564.389     10651.316       107.354         7.428        51.196
  Groundwater Inflow .......         0.000         0.000         0.000         0.000         0.000
  RDII Inflow ..............         0.000         0.000         0.000         0.000         0.000
  External Inflow ..........       187.321       299.713        17.983         2.248        11.239
  External Outflow .........      2727.651      4873.929       148.062        16.885        88.130
  Flooding Loss ............      3886.182      7363.942        99.399         8.691        52.218
  Exfiltration Loss ........         0.000         0.000         0.000         0.000         0.000
  Mass Reacted .............         0.000         0.000         0.000         0.000         0.000
  Initial Stored Mass ......         0.000         0.000         0.000         0.000         0.000
  Final Stored Mass ........       565.945       985.432        24.814         2.631        14.331
  Continuity Error (%) .....         1.992         1.827         1.507         1.249         1.400
  
  
  *************************
  Highest Continuity Errors
  *************************
  Node HS02004842 (10.95%)
  Node JK-storage (-10.25%)
  Node YS02001884 (8.51%)
  Node HS02004817 (2.12%)
  Node YSB1171 (1.97%)
  
  
  ***************************
  Time-Step Critical Elements
  ***************************
  Link WS02006252WS02006251 (67.15%)
  Link WS02006280WS02006229 (11.10%)
  Link YS02001793JiankangQianchi (6.13%)
  Link WS02006238WS02006235 (4.40%)
  Link WS02004404WS02004405 (1.19%)
  
  
  ********************************
  Highest Flow Instability Indexes
  ********************************
  Link WS02006113WS02006111 (39)
  Link YS02163601YS02164001 (32)
  Link YS02001629YS02163301 (31)
  Link YS02163301YS02001633 (30)
  Link YS02001619YS02001622 (30)
  
  
  *************************
  Routing Time Step Summary
  *************************
  Minimum Time Step           :     0.50 sec
  Average Time Step           :     1.11 sec
  Maximum Time Step           :     5.00 sec
  Percent in Steady State     :    -0.00
  Average Iterations per Step :     4.00
  Percent Not Converging      :    17.73
  
  
  ***************************
  Subcatchment Runoff Summary
  ***************************
  
  ------------------------------------------------------------------------------------------------------------------------------
                            Total      Total      Total      Total     Imperv       Perv      Total       Total     Peak  Runoff
                           Precip      Runon       Evap      Infil     Runoff     Runoff     Runoff      Runoff   Runoff   Coeff
  Subcatchment                 mm         mm         mm         mm         mm         mm         mm    10^6 ltr      LPS
  ------------------------------------------------------------------------------------------------------------------------------
  sub0                      16.73       0.00       0.00       0.71      15.51       0.47      15.98        0.01     3.87   0.955
  sub1                      16.73       0.00       0.00       1.18      14.80       0.66      15.47        0.10    26.74   0.924
  sub2                      16.73       0.00       0.00       4.79      10.46       1.40      11.85        0.11    25.81   0.709
  sub3                      16.73       0.00       0.00       5.01      10.42       1.18      11.60        0.26    56.97   0.694
  sub4                      16.73       0.00       0.00       1.28      14.65       0.56      15.21        0.32    66.74   0.909
  sub5                      16.73       0.00       0.00       0.73      15.47       0.44      15.91        0.18    46.91   0.951
  sub7                      16.73       0.00       0.00       0.93      15.16       0.58      15.74        0.05    14.85   0.941
  sub8                      16.73       0.00       0.00       0.94      15.15       0.57      15.72        0.10    27.42   0.940
  sub9                      16.73       0.00       0.00       0.94      15.15       0.57      15.72        0.08    20.52   0.940
  sub10                     16.73       0.00       0.00       0.83      15.31       0.50      15.81        0.17    46.04   0.945
  sub11                     16.73       0.00       0.00       0.83      15.32       0.51      15.84        0.18    50.62   0.947
  sub12                     16.73       0.00       0.00       1.34      14.51       0.83      15.34        0.13    39.22   0.917
  sub14                     16.73       0.00       0.00       0.94      15.15       0.57      15.72        0.15    40.40   0.940
  sub15                     16.73       0.00       0.00       3.54      11.65       1.48      13.13        0.23    57.86   0.785
  sub16                     16.73       0.00       0.00       3.72      11.17       1.80      12.97        0.14    37.34   0.776
  sub17                     16.73       0.00       0.00       3.62      11.33       1.73      13.07        0.11    30.57   0.781
  sub22                     16.73       0.00       0.00       5.27       9.50       1.92      11.42        0.72   183.11   0.683
  sub23                     16.73       0.00       0.00       4.37      10.50       1.82      12.32        0.59   153.57   0.736
  sub60                     16.73       0.00       0.00       1.74      12.84       0.27      13.11        3.97   446.24   0.784
  sub61                     16.73       0.00       0.00       2.46      12.76       0.38      13.15        4.05   542.53   0.786
  sub62                     16.73       0.00       0.00       1.06      13.96       0.27      14.24        4.38   558.01   0.851
  sub63                     16.73       0.00       0.00       4.39      11.09       0.46      11.55        3.50   496.40   0.690
  sub64                     16.73       0.00       0.00       2.23      12.34       0.28      12.62        3.84   424.95   0.754
  sub65                     16.73       0.00       0.00       1.91      12.57       0.27      12.84        3.95   431.32   0.767
  sub66                     16.73       0.00       0.00       4.54      10.51       0.31      10.82        3.32   388.44   0.647
  sub67                     16.73       0.00       0.00       1.01      14.49       0.32      14.81        4.57   675.76   0.885
  sub68                     16.73       0.00       0.00       1.95      13.36       0.39      13.75        4.23   589.75   0.822
  sub69                     16.73       0.00       0.00       2.00      13.64       0.51      14.15        3.31   542.07   0.846
  sub70                     16.73      14.44       0.00       8.48      19.08       2.12      21.20        4.85   534.50   0.680
  sub71                     16.73       0.00       0.00       1.08      13.70       0.25      13.96        3.30   394.68   0.834
  sub72                     16.73       0.00       0.00       1.02      11.61       0.15      11.76        2.40   206.66   0.703
  1                         16.73      20.64       0.00       1.40      22.50       7.30      29.80        7.00   612.18   0.797
  2                         16.73       0.00       0.00       3.09       4.04       3.23       7.28        2.91   331.58   0.435
  
  
  ****************************
  Subcatchment Washoff Summary
  ****************************
  
  ------------------------------------------------------------------------------------------
                                 COD            SS            TN            TP         NH4-N
  Subcatchment                    kg            kg            kg            kg            kg
  ------------------------------------------------------------------------------------------
  sub0                         3.641         7.161         0.064         0.005         0.031
  sub1                        15.670        31.767         0.296         0.021         0.143
  sub2                        10.304        20.454         0.214         0.015         0.099
  sub3                        25.293        49.815         0.517         0.036         0.240
  sub4                        36.171        74.264         0.714         0.044         0.344
  sub5                        35.763        71.366         0.649         0.050         0.316
  sub7                         7.894        16.212         0.150         0.010         0.073
  sub8                        11.755        24.726         0.234         0.014         0.113
  sub9                        10.113        20.966         0.196         0.013         0.095
  sub10                       29.347        59.341         0.545         0.040         0.265
  sub11                       28.395        58.052         0.536         0.037         0.260
  sub12                       24.463        49.072         0.450         0.034         0.218
  sub14                       21.697        44.543         0.414         0.028         0.200
  sub15                       29.696        58.821         0.572         0.042         0.270
  sub16                       19.246        38.050         0.367         0.028         0.174
  sub17                       17.687        34.653         0.330         0.026         0.156
  sub22                       95.915       186.896         1.820         0.139         0.857
  sub23                       54.382       109.539         1.141         0.076         0.527
  sub60                      354.593       680.511         7.004         0.438         3.365
  sub61                      440.069       840.656         8.197         0.570         3.956
  sub62                      450.295       873.880         8.757         0.565         4.215
  sub63                      328.398       618.659         6.511         0.464         3.040
  sub64                      451.703       836.730         8.316         0.612         3.984
  sub65                      461.380       857.960         8.545         0.619         4.099
  sub66                      259.829       485.752         5.258         0.349         2.468
  sub67                      667.509      1281.525        12.082         0.900         5.857
  sub68                      479.818       924.967         9.162         0.628         4.393
  sub69                      429.413       835.624         8.071         0.576         3.875
  sub70                      759.749      1480.829        15.227         1.076         7.188
  sub71                      296.718       581.321         6.039         0.357         2.896
  sub72                      248.910       454.215         4.636         0.321         2.234
  1                          582.783      1142.119        11.847         0.837         5.542
  2                           65.870       118.919         1.812         0.110         0.778
  ------------------------------------------------------------------------------------------
  System                    6754.471     12969.363       130.673         9.081        62.268
  
  
  ******************
  Node Depth Summary
  ******************
  
  ---------------------------------------------------------------------------------
                                 Average  Maximum  Maximum  Time of Max    Reported
                                   Depth    Depth      HGL   Occurrence   Max Depth
  Node                 Type       Meters   Meters   Meters  days hr:min      Meters
  ---------------------------------------------------------------------------------
  WS02001211           JUNCTION     0.78     0.85     5.69     0  02:01        0.85
  WS02001212           JUNCTION     0.49     0.58     5.64     0  02:01        0.58
  WS02001213           JUNCTION     0.73     0.86     5.62     0  02:01        0.86
  WS02003069           JUNCTION     0.54     0.72     5.31     0  02:00        0.72
  WS02003072           JUNCTION     0.60     0.77     5.14     0  02:00        0.77
  WS02003073           JUNCTION     0.37     0.48     4.55     0  02:01        0.48
  WS02003060           JUNCTION     0.48     0.64     5.57     0  01:59        0.64
  WS02003066           JUNCTION     0.26     0.39     5.94     0  01:55        0.39
  WS02003059           JUNCTION     0.78     0.91     5.60     0  02:00        0.91
  WS02003067           JUNCTION     0.63     0.83     6.15     0  01:53        0.83
  WS02004401           JUNCTION     0.77     1.30     7.30     0  01:51        1.29
  WS02004402           JUNCTION     0.80     1.29     7.25     0  01:51        1.27
  WS02004403           JUNCTION     0.81     1.27     7.20     0  01:51        1.24
  WS02004404           JUNCTION     0.88     1.31     7.16     0  01:51        1.28
  WS02004406           JUNCTION     0.88     1.20     7.03     0  01:51        1.18
  WS02004409           JUNCTION     0.58     0.98     6.75     0  01:54        0.98
  WS02004410           JUNCTION     0.60     0.96     6.68     0  01:54        0.96
  WS02004411           JUNCTION     0.61     0.94     6.62     0  01:54        0.94
  WS02004412           JUNCTION     0.61     0.92     6.56     0  01:54        0.91
  WS02004413           JUNCTION     0.77     1.03     6.50     0  01:54        1.03
  WS02004405           JUNCTION     0.88     1.27     7.12     0  01:51        1.24
  WS02006109           JUNCTION     0.87     1.75     8.37     0  01:52        1.74
  WS02006110           JUNCTION     0.84     1.54     8.12     0  01:51        1.53
  WS02006111           JUNCTION     0.28     1.02     7.73     0  01:51        0.98
  WS02006112           JUNCTION     0.96     1.65     7.53     0  01:51        1.65
  WS02006113           JUNCTION     0.41     1.29     8.18     0  01:51        1.02
  WS02006115           JUNCTION     0.67     1.31     7.45     0  01:51        1.30
  WS02006116           JUNCTION     0.75     1.34     7.38     0  01:51        1.33
  WS02006230           JUNCTION     0.91     1.97     8.72     0  01:52        1.95
  WS02006231           JUNCTION     0.65     1.61     8.73     0  01:52        1.59
  WS02006232           JUNCTION     0.80     1.70     8.74     0  01:52        1.68
  WS02006234           JUNCTION     0.74     1.59     8.75     0  01:52        1.57
  WS02006235           JUNCTION     0.79     1.59     8.76     0  01:52        1.58
  WS02006238           JUNCTION     0.82     1.61     8.75     0  01:52        1.59
  WS02006240           JUNCTION     0.73     1.44     8.74     0  01:52        1.43
  WS02006242           JUNCTION     0.79     1.46     8.73     0  01:52        1.45
  WS02006243           JUNCTION     0.67     1.30     8.72     0  01:52        1.29
  WS02006245           JUNCTION     0.65     1.22     8.71     0  01:52        1.21
  WS02006247           JUNCTION     0.66     1.21     8.71     0  01:52        1.19
  WS02006248           JUNCTION     0.61     1.10     8.69     0  01:51        1.10
  WS02006249           JUNCTION     0.63     1.09     8.69     0  01:50        1.09
  WS02006239           JUNCTION     0.78     1.54     8.75     0  01:52        1.52
  WS02006251           JUNCTION     0.61     1.35     9.02     0  03:30        1.18
  WS02006252           JUNCTION     0.39     0.90     9.15     0  03:30        0.70
  WS02006253           JUNCTION     0.63     1.40     9.04     0  03:30        1.22
  WS02006256           JUNCTION     1.72     2.35     9.28     0  00:00        2.35
  WS02004138           JUNCTION     0.19     0.20     7.45     0  00:00        0.19
  WS02004139           JUNCTION     0.73     0.79     5.70     0  02:01        0.79
  WS02004407           JUNCTION     0.26     0.40     6.72     0  01:52        0.40
  WS02006228           JUNCTION     0.90     1.93     8.58     0  01:52        1.92
  WS02006229           JUNCTION     0.89     2.01     8.70     0  01:52        1.98
  WS02006280           JUNCTION     0.07     0.33     8.60     0  01:51        0.30
  WS02006284           JUNCTION     0.37     0.66     9.06     0  01:54        0.66
  WS02006287           JUNCTION     0.10     0.40     9.36     0  01:54        0.40
  WSF200               JUNCTION     0.26     0.44     5.67     0  01:54        0.44
  HS02004901           JUNCTION     0.13     0.38    10.21     0  01:53        0.38
  HS02004881           JUNCTION     0.01     0.05     9.08     0  01:54        0.05
  HS02004876           JUNCTION     0.04     0.17     9.20     0  01:54        0.17
  HS02004870           JUNCTION     0.02     0.10     9.38     0  01:54        0.10
  HS02004862           JUNCTION     0.02     0.11     9.50     0  01:55        0.11
  HS02004856           JUNCTION     0.08     0.15     9.58     0  01:54        0.15
  HS02004852           JUNCTION     0.01     0.08     9.59     0  01:55        0.08
  HS02004848           JUNCTION     0.01     0.07     9.67     0  01:54        0.07
  HS02004842           JUNCTION     0.34     0.40     9.67     0  01:54        0.40
  HS02004837           JUNCTION     0.03     0.09     9.67     0  01:54        0.09
  HS02004830           JUNCTION     0.04     0.11     9.58     0  01:55        0.11
  HS02004824           JUNCTION     0.03     0.15     9.55     0  01:54        0.15
  HS02004817           JUNCTION     0.45     0.71     9.56     0  01:54        0.71
  HS02004807           JUNCTION     0.13     0.38     9.55     0  01:55        0.38
  HS02004802           JUNCTION     0.17     0.41     9.54     0  01:55        0.41
  HS02004799           JUNCTION     0.13     0.48     9.69     0  01:53        0.48
  HS02004792           JUNCTION     0.04     0.22     9.75     0  01:53        0.22
  HS02004788           JUNCTION     0.03     0.16    10.06     0  01:54        0.16
  HS02004785           JUNCTION     0.05     0.25    10.15     0  01:53        0.25
  HS02004777           JUNCTION     0.15     0.40    10.20     0  01:53        0.40
  HS02004770           JUNCTION     0.12     0.37    10.21     0  01:53        0.37
  HS02004480           JUNCTION     0.09     0.39     9.64     0  01:53        0.39
  HS02004479           JUNCTION     0.12     0.43     9.64     0  01:53        0.43
  HS02004478           JUNCTION     0.07     0.29     9.52     0  01:54        0.29
  YS02001745           JUNCTION     0.78     0.95     8.46     0  02:33        0.95
  YS02001748           JUNCTION     1.19     1.53     8.61     0  01:47        1.38
  YS02001751           JUNCTION     1.38     1.62     8.50     0  01:47        1.57
  YS02001754           JUNCTION     1.64     1.83     8.44     0  03:02        1.83
  YS02001762           JUNCTION     1.84     2.03     8.43     0  02:35        2.03
  YS02001765           JUNCTION     1.79     1.98     8.43     0  02:35        1.98
  YS02001767           JUNCTION     1.75     1.94     8.43     0  02:35        1.94
  YS02001770           JUNCTION     1.75     1.93     8.42     0  02:35        1.93
  YS02001774           JUNCTION     1.81     1.98     8.40     0  02:12        1.98
  YS02001779           JUNCTION     1.55     1.68     8.37     0  01:47        1.68
  YS02001882           JUNCTION     0.63     1.66     8.38     0  01:52        1.63
  YS02001884           JUNCTION     0.72     1.75     8.37     0  01:52        1.73
  YS02001759           JUNCTION     1.87     2.07     8.43     0  02:35        2.07
  YS02001887           JUNCTION     0.80     1.82     8.36     0  01:52        1.81
  YS02001890           JUNCTION     0.83     1.81     8.32     0  01:52        1.81
  YS02001898           JUNCTION     0.59     1.60     8.33     0  01:52        1.56
  YS02001901           JUNCTION     0.71     1.71     8.32     0  01:52        1.67
  YS02001904           JUNCTION     0.69     1.66     8.29     0  01:52        1.63
  YS02001907           JUNCTION     1.02     1.96     8.25     0  01:52        1.96
  YS02001910           JUNCTION     0.81     1.82     8.33     0  01:53        1.80
  YS02001915           JUNCTION     0.61     1.67     8.39     0  01:53        1.63
  YS02001918           JUNCTION     0.36     1.42     8.49     0  01:53        1.33
  YS02001619           JUNCTION     1.34     1.57     8.50     0  01:45        1.48
  YS02001629           JUNCTION     1.69     1.85     8.40     0  01:47        1.84
  YS02001641           JUNCTION     1.79     1.93     8.37     0  01:50        1.93
  YS02001644           JUNCTION     1.80     1.92     8.35     0  01:48        1.92
  YS02001652           JUNCTION     1.65     2.03     8.63     0  04:04        1.88
  YS02001655           JUNCTION     1.41     2.00     8.85     0  04:06        1.67
  YS02001920           JUNCTION     0.46     1.52     8.53     0  01:53        1.43
  YS02001923           JUNCTION     0.29     1.31     8.57     0  01:53        1.21
  YS02001926           JUNCTION     0.34     1.15     8.59     0  01:53        1.05
  YS02001929           JUNCTION     0.21     0.92     8.62     0  01:53        0.84
  YS02001658           JUNCTION     1.13     1.99     9.13     0  04:07        1.42
  YS02001661           JUNCTION     0.89     1.89     9.30     0  04:06        1.27
  YS02001664           JUNCTION     0.40     0.57     8.49     0  03:46        0.56
  YS02001622           JUNCTION     1.36     1.56     8.47     0  01:45        1.50
  YS02001633           JUNCTION     1.79     1.96     8.41     0  01:47        1.94
  YS02001649           JUNCTION     1.84     2.05     8.44     0  03:41        2.05
  YS02001757           JUNCTION     1.97     2.17     8.43     0  02:35        2.17
  YS02001895           JUNCTION     0.59     1.58     8.33     0  01:52        1.56
  YS02001625           JUNCTION     1.64     1.78     8.38     0  01:45        1.78
  YS02163301           JUNCTION     1.72     1.89     8.41     0  01:47        1.88
  YS02163601           JUNCTION     1.84     1.99     8.39     0  06:19        1.99
  YS02164001           JUNCTION     1.77     1.92     8.38     0  06:19        1.91
  YS02001647           JUNCTION     1.63     1.80     8.41     0  04:33        1.78
  YSB1154              JUNCTION     0.26     0.58     9.64     0  01:53        0.58
  YSB6556              JUNCTION     0.16     0.47     9.64     0  01:53        0.47
  YSB1174              JUNCTION     0.22     0.53     9.64     0  01:53        0.53
  YSB1171              JUNCTION     0.42     0.74     9.64     0  01:53        0.74
  YS02006553           JUNCTION     1.02     1.98     8.26     0  01:52        1.97
  YS02006561           JUNCTION     0.36     1.08     7.74     0  02:13        1.08
  YS02006556           JUNCTION     0.99     1.95     8.26     0  01:52        1.93
  YS02006558           JUNCTION     1.03     1.98     8.25     0  01:52        1.97
  YS02001783           JUNCTION     0.58     1.46     7.60     0  02:10        1.46
  YS02001784           JUNCTION     0.59     1.40     7.47     0  02:12        1.40
  YS02001786           JUNCTION     0.52     1.24     7.27     0  02:16        1.24
  YS02001788           JUNCTION     0.44     1.11     7.08     0  02:18        1.10
  YS02001790           JUNCTION     0.55     1.90     7.54     0  04:42        1.25
  YS02001791           JUNCTION     0.50     2.72     8.19     0  04:41        1.23
  YS02001793           JUNCTION     0.68     2.74     7.57     0  04:39        1.78
  WSC                  OUTFALL      0.37     0.48     1.15     0  02:02        0.48
  JK-storage           STORAGE      2.87     5.80     6.60     0  04:43        5.80
  CC-storage           STORAGE      1.22     1.42     8.42     0  02:34        1.42
  XR-storage           STORAGE      7.13     7.72     5.72     0  02:07        7.72
  
  
  *******************
  Node Inflow Summary
  *******************
  
  -------------------------------------------------------------------------------------------------
                                  Maximum  Maximum                  Lateral       Total        Flow
                                  Lateral    Total  Time of Max      Inflow      Inflow     Balance
                                   Inflow   Inflow   Occurrence      Volume      Volume       Error
  Node                 Type           LPS      LPS  days hr:min    10^6 ltr    10^6 ltr     Percent
  -------------------------------------------------------------------------------------------------
  WS02001211           JUNCTION      7.35   389.85     0  03:24       0.212        10.5       0.381
  WS02001212           JUNCTION      0.00   392.39     0  03:24           0        10.5       0.226
  WS02001213           JUNCTION      0.00   394.73     0  03:24           0        10.5       0.269
  WS02003069           JUNCTION      0.32  1346.93     0  02:00     0.00922        22.5       0.145
  WS02003072           JUNCTION      0.00  1346.97     0  02:00           0        22.5       0.175
  WS02003073           JUNCTION      1.82  1349.12     0  02:01      0.0524        22.5       0.200
  WS02003060           JUNCTION     16.53  1346.62     0  02:00       0.476        22.5       0.136
  WS02003066           JUNCTION      0.00   956.97     0  01:55           0        11.7       0.035
  WS02003059           JUNCTION      0.00   398.02     0  03:24           0        10.5       0.373
  WS02003067           JUNCTION      0.00   956.64     0  01:54           0        11.7       0.073
  WS02004401           JUNCTION      0.00   968.11     0  01:52           0        11.9       0.159
  WS02004402           JUNCTION      0.00   967.94     0  01:52           0        11.9       0.151
  WS02004403           JUNCTION      0.00   968.61     0  01:52           0        11.8       0.139
  WS02004404           JUNCTION      0.16   968.87     0  01:52     0.00467        11.8       0.106
  WS02004406           JUNCTION      0.00   970.54     0  01:52           0        11.8       0.259
  WS02004409           JUNCTION      0.00   967.32     0  01:52           0        11.8       0.118
  WS02004410           JUNCTION      0.00   955.73     0  01:53           0        11.7       0.136
  WS02004411           JUNCTION      0.00   954.83     0  01:54           0        11.7       0.141
  WS02004412           JUNCTION      0.00   955.97     0  01:54           0        11.7       0.156
  WS02004413           JUNCTION      0.00   956.47     0  01:54           0        11.7       0.237
  WS02004405           JUNCTION      0.04   970.62     0  01:52      0.0011        11.8       0.162
  WS02006109           JUNCTION      1.23   936.15     0  01:52      0.0354        11.9       0.166
  WS02006110           JUNCTION      0.00   936.10     0  01:52           0        11.8       0.147
  WS02006111           JUNCTION      0.00   936.44     0  01:52           0        11.8       0.027
  WS02006112           JUNCTION     30.57   967.08     0  01:52       0.112        11.9       0.208
  WS02006113           JUNCTION      0.00   936.22     0  01:52           0        11.8       0.070
  WS02006115           JUNCTION      0.00   967.58     0  01:52           0        11.9       0.142
  WS02006116           JUNCTION      0.00   967.87     0  01:52           0        11.9       0.141
  WS02006230           JUNCTION     10.28   534.41     0  07:22       0.296        8.76       0.138
  WS02006231           JUNCTION      0.00   524.47     0  07:22           0        8.47       0.083
  WS02006232           JUNCTION      0.00   524.35     0  07:22           0        8.48       0.173
  WS02006234           JUNCTION      0.00   523.98     0  07:22           0        8.48       0.070
  WS02006235           JUNCTION      0.00   523.73     0  07:22           0        8.55       0.102
  WS02006238           JUNCTION      0.00   419.69     0  07:30           0        5.21       0.129
  WS02006240           JUNCTION      0.00   418.01     0  07:30           0        5.19       0.184
  WS02006242           JUNCTION      0.00   417.68     0  07:30           0        5.18       0.243
  WS02006243           JUNCTION      0.00   417.17     0  07:30           0        5.17       0.196
  WS02006245           JUNCTION      0.00   416.62     0  07:30           0        5.17       0.165
  WS02006247           JUNCTION      0.00   416.97     0  05:40           0        5.16       0.120
  WS02006248           JUNCTION      0.00   417.68     0  05:40           0        5.19       0.058
  WS02006249           JUNCTION      0.00   452.89     0  02:40           0        5.71       0.154
  WS02006239           JUNCTION      0.00   418.93     0  07:30           0         5.2       0.163
  WS02006251           JUNCTION      0.08   451.74     0  02:40     0.00222        5.79       0.143
  WS02006252           JUNCTION      0.00   400.00     0  04:10           0         5.1       0.008
  WS02006253           JUNCTION      3.87   156.77     0  01:54      0.0129       0.686       0.403
  WS02006256           JUNCTION      0.00   983.00     0  00:00           0        12.4      -0.001
  WS02004138           JUNCTION      0.00   380.00     0  00:00           0        10.4       0.063
  WS02004139           JUNCTION      0.32   396.51     0  00:00     0.00924        10.4       0.433
  WS02004407           JUNCTION      0.00   970.41     0  01:52           0        11.8       0.053
  WS02006228           JUNCTION      0.00   935.21     0  01:52           0        11.8       0.121
  WS02006229           JUNCTION      0.00   986.53     0  01:51           0        11.9       0.104
  WS02006280           JUNCTION      0.00   736.12     0  01:54           0        3.12       0.013
  WS02006284           JUNCTION      0.10   735.87     0  01:54     0.00275        3.12       0.019
  WS02006287           JUNCTION      0.00   735.65     0  01:54           0        3.12       0.024
  WSF200               JUNCTION      0.00   957.11     0  01:55           0        11.6       0.031
  HS02004901           JUNCTION     37.34    37.34     0  01:51       0.136       0.136       1.309
  HS02004881           JUNCTION     14.85   153.29     0  01:54       0.053       0.601       0.103
  HS02004876           JUNCTION     26.74   139.06     0  01:54       0.103       0.549       0.097
  HS02004870           JUNCTION     27.42   112.65     0  01:54         0.1       0.446       0.024
  HS02004862           JUNCTION     26.01    86.18     0  01:54       0.116       0.346       0.049
  HS02004856           JUNCTION     20.52    60.23     0  01:54      0.0756       0.231       0.628
  HS02004852           JUNCTION      0.00    40.37     0  01:54           0       0.155       0.035
  HS02004848           JUNCTION     56.97    56.97     0  01:56       0.261       0.261       0.018
  HS02004842           JUNCTION      0.00    18.18     0  02:06           0       0.119      12.297
  HS02004837           JUNCTION     52.39    67.88     0  01:54       0.357       0.463       0.176
  HS02004830           JUNCTION      0.15    67.98     0  01:54     0.00432       0.453       0.273
  HS02004824           JUNCTION     66.79   134.68     0  01:56       0.319       0.771       0.070
  HS02004817           JUNCTION      0.60   136.79     0  01:57      0.0173       0.788       2.162
  HS02004807           JUNCTION     50.62   183.93     0  01:55       0.184       0.956       0.458
  HS02004802           JUNCTION      0.00   183.89     0  01:56           0       0.955       0.411
  HS02004799           JUNCTION     40.40   470.75     0  01:53        0.15        1.87       0.159
  HS02004792           JUNCTION    183.39   430.98     0  01:53       0.729        1.72       0.024
  HS02004788           JUNCTION     59.53   248.80     0  01:53       0.274       0.992       0.039
  HS02004785           JUNCTION      0.15   189.56     0  01:53     0.00432        0.72       0.068
  HS02004777           JUNCTION      0.03   189.72     0  01:52    0.000864        0.72       0.727
  HS02004770           JUNCTION    153.57   190.39     0  01:52       0.587       0.722       0.428
  HS02004480           JUNCTION      0.00   554.34     0  01:53           0        2.18       0.043
  HS02004479           JUNCTION      0.00    83.76     0  01:53           0       0.323       0.228
  HS02004478           JUNCTION      0.00   735.59     0  01:54           0        3.12       0.010
  YS02001745           JUNCTION    446.25   446.25     0  02:16        3.97        3.97       0.268
  YS02001748           JUNCTION      0.04   451.44     0  02:16      0.0013        3.96       0.580
  YS02001751           JUNCTION      0.01   451.49     0  02:16    0.000317        3.94       0.609
  YS02001754           JUNCTION      0.26   452.26     0  02:16     0.00749        3.92       0.623
  YS02001762           JUNCTION      0.00   434.66     0  01:55           0         2.4       0.891
  YS02001765           JUNCTION      0.00   435.27     0  01:55           0         2.4       1.014
  YS02001767           JUNCTION      0.54   434.86     0  01:55      0.0154        2.42       1.483
  YS02001770           JUNCTION    558.16   706.46     0  02:34        4.38        5.27       0.594
  YS02001774           JUNCTION      0.00   706.50     0  02:34           0        3.71       0.670
  YS02001779           JUNCTION      0.01   706.53     0  02:34    0.000144        3.68       0.422
  YS02001882           JUNCTION      0.00    26.65     0  01:49           0      0.0349       6.189
  YS02001884           JUNCTION      0.00    45.89     0  01:48           0      0.0727       9.304
  YS02001759           JUNCTION    542.57   878.45     0  01:57        4.05        5.54       0.412
  YS02001887           JUNCTION    676.21   677.15     0  02:14        4.58        4.61       0.188
  YS02001890           JUNCTION      0.00   677.52     0  02:14           0        4.57       0.201
  YS02001898           JUNCTION      0.00   539.16     0  01:52           0        4.29       0.077
  YS02001901           JUNCTION      0.00   542.07     0  01:51           0        4.28       0.153
  YS02001904           JUNCTION      0.00   544.03     0  01:51           0        4.28       0.137
  YS02001907           JUNCTION      0.00  1182.32     0  01:54           0          10       0.247
  YS02001910           JUNCTION      0.00   659.75     0  01:54           0        5.76       0.221
  YS02001915           JUNCTION    394.70   658.89     0  01:54         3.3        5.81       0.095
  YS02001918           JUNCTION      0.00   361.46     0  01:54           0        2.54       0.064
  YS02001619           JUNCTION    388.44   388.44     0  02:16        3.32        3.32       0.371
  YS02001629           JUNCTION      0.00   219.60     0  01:48           0        1.44       2.029
  YS02001641           JUNCTION      0.00   457.17     0  01:48           0        5.13       0.406
  YS02001644           JUNCTION    424.99  1539.93     0  02:34        3.84        13.7       0.193
  YS02001652           JUNCTION      0.00   521.05     0  02:12           0        3.46       0.658
  YS02001655           JUNCTION      0.15   520.97     0  02:12     0.00443        3.48       0.729
  YS02001920           JUNCTION      2.87   360.49     0  01:54      0.0827        2.53       0.124
  YS02001923           JUNCTION      0.04   297.99     0  01:54     0.00109        2.42       0.040
  YS02001926           JUNCTION      0.05   238.92     0  01:54      0.0015         2.4       0.129
  YS02001929           JUNCTION    206.66   206.66     0  03:01        2.39        2.39       0.021
  YS02001658           JUNCTION      0.00   520.34     0  02:12           0         3.5       0.694
  YS02001661           JUNCTION      0.00   744.50     0  01:58           0        3.91      -0.291
  YS02001664           JUNCTION    496.40   496.40     0  02:16        3.49        3.91       0.151
  YS02001622           JUNCTION      0.00   388.90     0  02:16           0        3.31       0.961
  YS02001633           JUNCTION    431.52   456.41     0  01:48        3.95        5.27       0.609
  YS02001649           JUNCTION      0.00  1003.26     0  01:49           0        7.38       0.501
  YS02001757           JUNCTION      0.00  2147.01     0  01:55           0        11.1       0.826
  YS02001895           JUNCTION      0.00   540.45     0  01:52           0        4.29       0.118
  YS02001625           JUNCTION      0.00   435.52     0  02:16           0        3.36       1.179
  YS02163301           JUNCTION      0.00   222.98     0  01:45           0        1.44       1.684
  YS02163601           JUNCTION      0.11   456.74     0  01:48     0.00317        5.14       0.587
  YS02164001           JUNCTION      0.00   456.57     0  01:48           0        5.12       0.393
  YS02001647           JUNCTION      0.00   769.43     0  02:34           0        6.39       0.443
  YSB1154              JUNCTION     46.91    46.91     0  01:52        0.18       0.181       0.805
  YSB6556              JUNCTION      0.00    46.64     0  01:52           0       0.182       0.694
  YSB1174              JUNCTION     39.22    39.22     0  01:50       0.134       0.134       0.961
  YSB1171              JUNCTION      0.00    84.02     0  01:52           0       0.322       2.010
  YS02006553           JUNCTION      0.00   716.72     0  03:35           0         7.4       0.207
  YS02006561           JUNCTION      0.00  1084.60     0  01:52           0        11.6       0.007
  YS02006556           JUNCTION      0.00   716.77     0  03:35           0         7.4       0.149
  YS02006558           JUNCTION    590.63  1085.32     0  01:52        4.25        11.6       0.045
  YS02001783           JUNCTION      0.00  1067.22     0  01:52           0        11.6       0.021
  YS02001784           JUNCTION      1.06  1069.53     0  01:52      0.0305        11.6       0.032
  YS02001786           JUNCTION      0.06  1070.14     0  01:52     0.00162        11.6       0.030
  YS02001788           JUNCTION      0.07  1072.08     0  01:52     0.00204        11.6       0.018
  YS02001790           JUNCTION      0.15  1063.45     0  01:52     0.00446        11.6       0.019
  YS02001791           JUNCTION      0.00  1063.25     0  01:52           0        11.6       0.010
  YS02001793           JUNCTION      0.00  1063.31     0  01:52           0        11.6      -0.014
  WSC                  OUTFALL       0.00  1349.71     0  02:02           0        22.4       0.000
  JK-storage           STORAGE       0.00  1063.53     0  01:52           0        11.8      -9.294
  CC-storage           STORAGE       0.00  2148.57     0  01:55           0        8.73       0.723
  XR-storage           STORAGE    1054.62  1054.62     0  03:01        15.7        16.3      -0.002
  
  
  **********************
  Node Surcharge Summary
  **********************
  
  Surcharging occurs when water rises above the top of the highest conduit.
  ---------------------------------------------------------------------
                                               Max. Height   Min. Depth
                                   Hours       Above Crown    Below Rim
  Node                 Type      Surcharged         Meters       Meters
  ---------------------------------------------------------------------
  WS02004401           JUNCTION        1.37          0.303        1.357
  WS02004402           JUNCTION        1.41          0.288        1.452
  WS02004403           JUNCTION        1.43          0.265        1.765
  WS02004404           JUNCTION        1.55          0.305        2.475
  WS02004406           JUNCTION        1.52          0.201        2.249
  WS02004413           JUNCTION        0.48          0.031        2.169
  WS02004405           JUNCTION        1.53          0.274        2.526
  WS02006109           JUNCTION        4.36          0.928        0.892
  WS02006110           JUNCTION        2.70          0.627        1.223
  WS02006111           JUNCTION        0.36          0.208        1.662
  WS02006112           JUNCTION        3.07          0.651        1.029
  WS02006113           JUNCTION        0.40          0.486        1.444
  WS02006115           JUNCTION        0.77          0.300        1.950
  WS02006116           JUNCTION        0.84          0.284        2.006
  WS02006230           JUNCTION        2.48          0.893        0.677
  WS02006231           JUNCTION        2.94          0.899        0.631
  WS02006232           JUNCTION        4.48          1.002        0.478
  WS02006234           JUNCTION        3.70          0.871        0.369
  WS02006235           JUNCTION        4.02          0.882        0.408
  WS02006238           JUNCTION        4.16          0.889        0.541
  WS02006240           JUNCTION        3.62          0.734        0.656
  WS02006242           JUNCTION        3.91          0.731        0.089
  WS02006243           JUNCTION        3.37          0.590        0.180
  WS02006245           JUNCTION        3.27          0.511        0.339
  WS02006247           JUNCTION        3.32          0.495        0.265
  WS02006248           JUNCTION        3.03          0.380        0.000
  WS02006249           JUNCTION        3.14          0.390        0.000
  WS02006239           JUNCTION        3.80          0.802        0.488
  WS02006251           JUNCTION        1.82          0.319        0.861
  WS02006252           JUNCTION        3.65          0.504        0.596
  WS02006253           JUNCTION        2.05          0.361        2.119
  WS02006256           JUNCTION        6.97          2.050        0.000
  WS02006228           JUNCTION        4.31          1.102        1.098
  HS02004817           JUNCTION        0.15          0.010        1.730
  YS02001748           JUNCTION        6.21          0.453        0.737
  YS02001751           JUNCTION        6.25          0.619        0.581
  YS02001754           JUNCTION        6.30          0.783        0.367
  YS02001762           JUNCTION        6.36          1.032        0.118
  YS02001765           JUNCTION        6.35          0.979        0.121
  YS02001767           JUNCTION        6.34          0.937        0.093
  YS02001770           JUNCTION        6.34          0.896        0.024
  YS02001774           JUNCTION        6.35          0.983        0.067
  YS02001779           JUNCTION        6.30          0.680        0.000
  YS02001882           JUNCTION        1.79          0.659        0.171
  YS02001884           JUNCTION        1.81          0.693        0.177
  YS02001759           JUNCTION        6.37          1.070        0.140
  YS02001887           JUNCTION        1.86          0.769        0.181
  YS02001890           JUNCTION        1.88          0.760        0.000
  YS02001898           JUNCTION        1.76          0.567        0.173
  YS02001901           JUNCTION        1.83          0.708        0.162
  YS02001904           JUNCTION        1.82          0.661        0.189
  YS02001907           JUNCTION        2.36          0.950        0.000
  YS02001910           JUNCTION        1.92          0.819        0.281
  YS02001915           JUNCTION        1.78          0.672        0.328
  YS02001918           JUNCTION        1.62          0.423        0.387
  YS02001619           JUNCTION        6.25          0.567        0.043
  YS02001629           JUNCTION        6.25          0.470        0.000
  YS02001641           JUNCTION        6.35          0.935        0.165
  YS02001644           JUNCTION        6.35          0.920        0.000
  YS02001652           JUNCTION        6.31          1.004        0.126
  YS02001655           JUNCTION        6.26          1.003        0.197
  YS02001920           JUNCTION        1.65          0.524        0.616
  YS02001923           JUNCTION        0.01          0.098        0.722
  YS02001926           JUNCTION        0.01          0.146        0.754
  YS02001658           JUNCTION        6.21          0.986        0.314
  YS02001661           JUNCTION        0.18          0.824        0.566
  YS02001622           JUNCTION        6.27          0.564        0.056
  YS02001633           JUNCTION        6.34          0.938        0.122
  YS02001649           JUNCTION        6.36          1.050        0.000
  YS02001757           JUNCTION        6.39          1.171        0.039
  YS02001895           JUNCTION        1.77          0.582        0.168
  YS02001625           JUNCTION        6.32          0.780        0.000
  YS02163301           JUNCTION        6.33          0.894        0.136
  YS02163601           JUNCTION        6.36          0.991        0.089
  YS02164001           JUNCTION        6.34          0.923        0.177
  YS02001647           JUNCTION        6.32          0.798        0.102
  YS02006553           JUNCTION        2.44          0.977        0.213
  YS02006561           JUNCTION        1.64          0.279        0.871
  YS02006556           JUNCTION        2.10          0.906        0.444
  YS02006558           JUNCTION        2.07          0.879        0.521
  YS02001783           JUNCTION        1.88          0.664        0.936
  YS02001784           JUNCTION        1.86          0.605        0.885
  YS02001786           JUNCTION        1.77          0.444        0.986
  YS02001788           JUNCTION        1.68          0.308        1.172
  YS02001790           JUNCTION        2.52          1.100        0.057
  YS02001791           JUNCTION        2.61          1.920        0.000
  YS02001793           JUNCTION        2.88          1.739        0.861
  
  
  *********************
  Node Flooding Summary
  *********************
  
  Flooding refers to all water that overflows a node, whether it ponds or not.
  --------------------------------------------------------------------------
                                                             Total   Maximum
                                 Maximum   Time of Max       Flood    Ponded
                        Hours       Rate    Occurrence      Volume     Depth
  Node                 Flooded       LPS   days hr:min    10^6 ltr    Meters
  --------------------------------------------------------------------------
  WS02006248              0.22     60.62      0  01:53       0.024     0.000
  WS02006249              1.95    188.12      0  02:40       0.512     0.000
  WS02006256              4.48    978.40      0  00:00       9.007     0.000
  YS02001779              3.39    706.52      0  02:34       3.665     0.000
  YS02001890              0.78    162.15      0  02:12       0.270     0.000
  YS02001907              1.50    716.48      0  02:16       2.618     0.000
  YS02001629              0.01      2.67      0  01:47       0.000     0.000
  YS02001644              5.06   1539.92      0  02:34      11.962     0.000
  YS02001649              0.02     24.89      0  03:48       0.001     0.000
  YS02001625              2.16    435.43      0  02:16       1.967     0.000
  YS02001791              0.01    242.56      0  04:41       0.000     0.000
  JK-storage              0.53    441.63      0  04:45       0.401     0.000
  XR-storage              4.67    674.59      0  03:01       5.097     0.000
  
  
  **********************
  Storage Volume Summary
  **********************
  
  --------------------------------------------------------------------------------------------------
                         Average     Avg  Evap Exfil       Maximum     Max    Time of Max    Maximum
                          Volume    Pcnt  Pcnt  Pcnt        Volume    Pcnt     Occurrence    Outflow
  Storage Unit           1000 m3    Full  Loss  Loss       1000 m3    Full    days hr:min        LPS
  --------------------------------------------------------------------------------------------------
  JK-storage               0.144      50     0     0         0.291     100       0  04:43     983.00
  CC-storage               3.401      22     0     0         3.965      25       0  02:34     400.00
  XR-storage               0.855      92     0     0         0.926     100       0  02:07     380.00
  
  
  ***********************
  Outfall Loading Summary
  ***********************
  
  ---------------------------------------------------------------------------------------------------------------------------------
                         Flow       Avg       Max       Total         Total         Total         Total         Total         Total
                         Freq      Flow      Flow      Volume           COD            SS            TN            TP         NH4-N
  Outfall Node           Pcnt       LPS       LPS    10^6 ltr            kg            kg            kg            kg            kg
  ---------------------------------------------------------------------------------------------------------------------------------
  WSC                   99.98    840.65   1349.71      22.449      2727.813      4874.209       148.074        16.886        88.137
  ---------------------------------------------------------------------------------------------------------------------------------
  System                99.98    840.65   1349.71      22.449      2727.813      4874.209       148.074        16.886        88.137
  
  
  ********************
  Link Flow Summary
  ********************
  
  -----------------------------------------------------------------------------
                                 Maximum  Time of Max   Maximum    Max/    Max/
                                  |Flow|   Occurrence   |Veloc|    Full    Full
  Link                 Type          LPS  days hr:min     m/sec    Flow   Depth
  -----------------------------------------------------------------------------
  WS02003066WSF200     CONDUIT    957.11     0  01:55      3.01    0.16    0.32
  WS02006287WS02006284 CONDUIT    735.77     0  01:54      2.45    0.34    0.41
  WS02006284WS02006280 CONDUIT    736.12     0  01:54      2.68    0.31    0.38
  WS02006280WS02006229 CONDUIT    736.24     0  01:54      4.16    0.16    0.57
  WS02006229WS02006228 CONDUIT    935.21     0  01:52      1.86    3.10    1.00
  WS02006256WS02006235 CONDUIT    288.60     0  00:00      4.23    3.05    1.00
  WS02006253WS02006251 CONDUIT    167.86     0  01:51      0.72    0.50    1.00
  WS02006252WS02006251 CONDUIT    404.27     0  07:22      3.22    1.48    1.00
  WS02006251WS02006249 CONDUIT    452.89     0  02:40      1.18    1.31    1.00
  WS02006249WS02006248 CONDUIT    417.68     0  05:40      1.14    2.29    1.00
  WS02006248WS02006247 CONDUIT    416.97     0  05:40      1.11    0.91    1.00
  WS02006247WS02006245 CONDUIT    416.62     0  07:30      1.08    3.30    1.00
  WS02006245WS02006243 CONDUIT    417.17     0  07:30      1.09    1.23    1.00
  WS02006243WS02006242 CONDUIT    417.68     0  07:30      1.09    0.89    1.00
  WS02006242WS02006240 CONDUIT    418.01     0  07:30      1.09    1.66    1.00
  WS02006240WS02006239 CONDUIT    418.93     0  07:30      1.09    1.32    1.00
  WS02006239WS02006238 CONDUIT    419.69     0  07:30      1.09    1.34    1.00
  WS02006238WS02006235 CONDUIT    420.77     0  07:30      1.46    0.94    1.00
  WS02006235WS02006234 CONDUIT    523.98     0  07:22      1.36    5.53    1.00
  WS02006234WS02006232 CONDUIT    524.35     0  07:22      1.39    1.06    1.00
  WS02006232WS02006231 CONDUIT    524.47     0  07:22      1.36    1.10    1.00
  WS02006231WS02006230 CONDUIT    524.14     0  07:22      1.36    7.95    1.00
  WS02006230WS02006229 CONDUIT    535.27     0  07:22      1.39   11.91    1.00
  WS02006228WS02006109 CONDUIT    934.92     0  01:52      1.86    4.08    1.00
  WS02006116WS02004401 CONDUIT    968.11     0  01:52      1.23    1.33    1.00
  WS02006115WS02006116 CONDUIT    967.87     0  01:52      1.23    1.24    1.00
  WS02006113WS02006111 CONDUIT    936.44     0  01:52      2.62    1.12    1.00
  WS02006112WS02006115 CONDUIT    967.58     0  01:52      1.23    0.57    1.00
  WS02006111WS02006112 CONDUIT    936.81     0  01:52      1.86    0.45    1.00
  WS02006110WS02006113 CONDUIT    936.22     0  01:52      1.86    0.85    1.00
  WS02006109WS02006110 CONDUIT    936.10     0  01:52      1.86    1.80    1.00
  WS02004411WS02004412 CONDUIT    955.97     0  01:54      1.26    1.36    0.93
  WS02004401WS02004402 CONDUIT    967.94     0  01:52      1.23    1.16    1.00
  WS02004413WS02003067 CONDUIT    956.64     0  01:54      1.57    0.41    0.72
  WS02004412WS02004413 CONDUIT    956.47     0  01:54      1.24    0.64    0.96
  WS02004410WS02004411 CONDUIT    954.83     0  01:54      1.24    1.30    0.95
  WS02004409WS02004410 CONDUIT    955.73     0  01:53      1.24    1.24    0.97
  WS02004407WS02004409 CONDUIT    967.32     0  01:52      1.73    0.34    0.69
  WS02004406WS02004407 CONDUIT    970.41     0  01:52      1.65    0.43    0.70
  WS02004405WS02004406 CONDUIT    970.54     0  01:52      1.24    1.91    1.00
  WS02004404WS02004405 CONDUIT    970.58     0  01:52      1.24    9.51    1.00
  WS02004403WS02004404 CONDUIT    968.70     0  01:52      1.23    0.70    1.00
  WS02004402WS02004403 CONDUIT    968.61     0  01:52      1.23    1.39    1.00
  WS02004139WS02001211 CONDUIT    382.51     0  03:24      0.90    0.48    0.64
  WS02004138WS02004139 CONDUIT    396.19     0  00:00      3.65    0.08    0.47
  WS02003067WS02003066 CONDUIT    956.97     0  01:55      1.67    0.31    0.51
  WS02001213WS02003059 CONDUIT    398.02     0  03:24      0.88    0.66    0.88
  WS02001212WS02001213 CONDUIT    394.73     0  03:24      1.32    0.61    0.56
  WS02001211WS02001212 CONDUIT    392.39     0  03:24      0.78    0.30    0.72
  WS02003072WS02003073 CONDUIT   1347.30     0  02:01      1.97    2.91    0.58
  WS02003069WS02003072 CONDUIT   1346.97     0  02:00      1.82    0.65    0.62
  WS02003060WS02003069 CONDUIT   1346.61     0  02:00      2.03    0.53    0.57
  WS02003059WS02003060 CONDUIT    402.24     0  03:24      0.95    0.26    0.78
  HS02004901HS02004770 CONDUIT     36.85     0  01:52      0.10    0.14    0.54
  HS02004876HS02004881 CONDUIT    139.08     0  01:54      1.26    1.48    0.16
  HS02004870HS02004876 CONDUIT    112.62     0  01:54      0.85    0.07    0.19
  HS02004842HS02004848 CONDUIT     18.18     0  02:06      0.08    0.01    0.34
  HS02004837HS02004842 CONDUIT     18.64     0  02:07      0.42    0.01    0.35
  HS02004830HS02004837 CONDUIT     67.83     0  01:54      0.68    0.07    0.14
  HS02004824HS02004830 CONDUIT     68.04     0  01:56      0.62    0.09    0.18
  HS02004817HS02004824 CONDUIT    136.19     0  01:57      0.32    0.06    0.60
  HS02004770HS02004777 CONDUIT    189.69     0  01:52      0.49    0.35    0.55
  HS02004799HS02004480 CONDUIT    470.63     0  01:53      1.09    0.59    0.62
  HS02004792HS02004799 CONDUIT    430.88     0  01:53      1.22    0.26    0.50
  HS02004788HS02004792 CONDUIT    248.73     0  01:54      1.29    0.16    0.28
  HS02004785HS02004788 CONDUIT    189.53     0  01:53      0.92    1.43    0.30
  HS02004777HS02004785 CONDUIT    189.41     0  01:53      0.59    0.23    0.46
  HS02004480HS02004478 CONDUIT    554.37     0  01:53      1.59    2.33    0.50
  HS02004479HS02004480 CONDUIT     83.72     0  01:53      0.37    0.08    0.59
  HS02004862HS02004870 CONDUIT     86.18     0  01:55      0.82    0.09    0.15
  HS02004848HS02004852 CONDUIT     40.37     0  01:54      0.54    0.05    0.11
  HS02004856HS02004862 CONDUIT     60.18     0  01:54      0.61    0.06    0.14
  HS02004852HS02004856 CONDUIT     40.43     0  01:55      0.35    0.05    0.17
  HS02004802HS02004478 CONDUIT    184.69     0  01:57      0.53    0.16    0.50
  HS02004478WS02006287 CONDUIT    735.65     0  01:54      2.18    0.21    0.38
  HS02004817HS02004807 CONDUIT    136.98     0  01:57      0.26    0.08    0.77
  HS02004807HS02004802 CONDUIT    183.89     0  01:56      0.47    0.35    0.56
  YS02001759YS02001757 CONDUIT    877.33     0  01:57      1.12    0.62    1.00
  YS02001762YS02001759 CONDUIT    434.05     0  01:55      0.55    0.50    1.00
  YS02001765YS02001762 CONDUIT    434.66     0  01:55      0.55    0.41    1.00
  YS02001770YS02001767 CONDUIT    434.32     0  01:55      0.55    1.72    1.00
  YS02001774YS02001770 CONDUIT    706.50     0  02:34      0.90    0.45    1.00
  YS02001779YS02001774 CONDUIT    706.52     0  02:34      0.90    0.36    1.00
  YS02001649YS02001757 CONDUIT   1003.76     0  01:49      1.28    0.61    1.00
  YS02001767YS02001765 CONDUIT    435.27     0  01:55      0.55    0.55    1.00
  YS02006561YS02001783 CONDUIT   1067.22     0  01:52      2.15    0.55    1.00
  YS02001783YS02001784 CONDUIT   1068.47     0  01:52      2.13    1.47    1.00
  YS02001784YS02001785 CONDUIT   1070.08     0  01:52      2.13    2.49    1.00
  YS02001788YS02001790 CONDUIT   1063.30     0  01:52      2.44    0.78    1.00
  YS02001790YS02001791 CONDUIT   1063.25     0  01:52      2.91    1.16    1.00
  YS02001791YS02001793 CONDUIT   1063.31     0  01:52      5.76    0.46    1.00
  YS02001910YS02001907 CONDUIT    659.66     0  01:54      0.84    0.37    1.00
  YS02001786YS02001788 CONDUIT   1072.01     0  01:52      2.31    2.07    1.00
  YS02001915YS02001910 CONDUIT    659.75     0  01:54      0.84    0.33    1.00
  YS02001918YS02001915 CONDUIT    362.59     0  01:54      0.48    0.20    1.00
  YS02001923YS02001920 CONDUIT    357.62     0  01:54      0.81    0.16    1.00
  YS02001926YS02001923 CONDUIT    297.96     0  01:54      0.92    0.43    1.00
  YS02001929YS02001926 CONDUIT    238.87     0  01:54      0.98    0.11    0.96
  YS02001920YS02001918 CONDUIT    361.46     0  01:54      0.77    0.35    1.00
  YS02001629YS02163301 CONDUIT    222.98     0  01:45      0.28    0.27    1.00
  YS02001619YS02001622 CONDUIT    388.90     0  02:16      0.74    0.57    1.00
  YS02001622YS02001625 CONDUIT    388.80     0  02:16      0.50    0.21    1.00
  YS02001625YS02001629 CONDUIT    219.60     0  01:48      0.29    0.10    1.00
  YS02163301YS02001633 CONDUIT    224.82     0  01:45      0.29    0.21    1.00
  YS02163601YS02164001 CONDUIT    456.57     0  01:48      0.58    0.40    1.00
  YS02164001YS02001641 CONDUIT    457.17     0  01:48      0.58    0.62    1.00
  YS02001641YS02001644 CONDUIT    457.00     0  01:48      0.58    1.48    1.00
  YS02001647YS02001649 CONDUIT    769.43     0  02:34      0.98    0.41    1.00
  YS02006553YS02006556 CONDUIT    716.77     0  03:35      0.91    0.61    1.00
  YS02006556YS02006558 CONDUIT    716.87     0  03:35      0.91    0.57    1.00
  YSB6556YSB1171       CONDUIT     46.61     0  01:54      0.14    0.05    0.84
  YS02001907YS02006553 CONDUIT    716.72     0  03:35      0.80    0.84    1.00
  YS02006558YS02006561 CONDUIT   1084.60     0  01:52      3.84    2.40    1.00
  YS02001633YS02163601 CONDUIT    456.63     0  01:48      0.58    0.48    1.00
  YS02001644YS02001647 CONDUIT    769.46     0  02:34      0.98    0.45    1.00
  YS02001745YS02001748 CONDUIT    451.40     0  02:16      1.67    0.17    0.97
  YS02001748YS02001751 CONDUIT    451.48     0  02:16      1.21    0.23    1.00
  YS02001751YS02001754 CONDUIT    452.00     0  02:16      1.02    0.22    1.00
  YS02001754YS02001757 CONDUIT    452.01     0  02:16      0.58    0.18    1.00
  YS02001882YS02001884 CONDUIT     26.65     0  01:49      0.16    0.03    1.00
  YS02001884YS02001887 CONDUIT     45.89     0  01:48      0.12    0.06    1.00
  YS02001890YS02001895 CONDUIT    540.45     0  01:52      0.69    0.25    1.00
  YS02001895YS02001898 CONDUIT    539.16     0  01:52      0.69    0.94    1.00
  YS02001898YS02001901 CONDUIT    542.07     0  01:51      0.69    0.35    1.00
  YS02001901YS02001904 CONDUIT    544.03     0  01:51      0.69    0.84    1.00
  YS02001904YS02001907 CONDUIT    546.43     0  01:51      0.70    0.19    1.00
  YS02001887YS02001890 CONDUIT    677.52     0  02:14      0.86    1.16    1.00
  YS02001652YS02001649 CONDUIT    521.19     0  02:12      0.71    0.26    1.00
  YS02001655YS02001652 CONDUIT    521.05     0  02:12      1.09    0.25    1.00
  YS02001658YS02001655 CONDUIT    520.81     0  02:12      1.41    0.22    1.00
  YS02001661YS02001658 CONDUIT    520.34     0  02:12      1.78    0.20    1.00
  YS02001664YS02001661 CONDUIT    744.50     0  01:58      1.69    0.23    0.77
  YSB1154YSB6556       CONDUIT     46.64     0  01:52      0.15    0.08    0.75
  YSB1174YSB1171       CONDUIT     38.37     0  01:50      0.11    0.06    0.87
  YSB1171HS02004479    CONDUIT     83.76     0  01:53      0.54    0.06    0.70
  HS02004881HS02006253 CONDUIT    153.29     0  01:54      2.62    0.03    0.54
  YS02001793JiankangQianchi CONDUIT   1063.53     0  01:52     16.80    0.08    1.00
  YS02001757CaochengTiaoxuchi CONDUIT   2148.57     0  01:55      3.55    0.94    1.00
  WSF200WS02003060     CONDUIT    957.19     0  01:55      1.97    0.21    0.45
  1                    CONDUIT   1349.71     0  02:02      3.60    0.47    0.48
  CC-Pump-1            PUMP       200.00     0  02:20              1.00
  CC-Pump-2            PUMP       200.00     0  04:10              1.00
  JK-Pump-1            PUMP       300.00     0  00:00              1.00
  JK-Pump-2            PUMP       683.00     0  00:00              1.00
  XR-Pump-1            PUMP        95.00     0  00:00              1.00
  XR-Pump-2            PUMP        95.00     0  00:00              1.00
  XR-Pump-3            PUMP        95.00     0  00:00              1.00
  XR-Pump-4            PUMP        95.00     0  00:00              1.00
  
  
  ***************************
  Flow Classification Summary
  ***************************
  
  -------------------------------------------------------------------------------------
                      Adjusted    ---------- Fraction of Time in Flow Class ---------- 
                       /Actual         Up    Down  Sub   Sup   Up    Down  Norm  Inlet 
  Conduit               Length    Dry  Dry   Dry   Crit  Crit  Crit  Crit  Ltd   Ctrl  
  -------------------------------------------------------------------------------------
  WS02003066WSF200        1.00   0.03  0.03  0.00  0.00  0.94  0.00  0.00  0.40  0.00
  WS02006287WS02006284    1.00   0.02  0.01  0.00  0.65  0.31  0.00  0.00  0.64  0.00
  WS02006284WS02006280    1.00   0.03  0.00  0.00  0.00  0.00  0.00  0.97  0.00  0.00
  WS02006280WS02006229    1.00   0.03  0.00  0.00  0.02  0.03  0.00  0.91  0.02  0.00
  WS02006229WS02006228    1.00   0.00  0.00  0.00  1.00  0.00  0.00  0.00  0.00  0.00
  WS02006256WS02006235    1.00   0.00  0.00  0.00  1.00  0.00  0.00  0.00  0.00  0.00
  WS02006253WS02006251    1.00   0.01  0.01  0.00  0.97  0.00  0.01  0.00  0.00  0.00
  WS02006252WS02006251    1.00   0.08  0.00  0.00  0.22  0.00  0.69  0.00  0.00  0.00
  WS02006251WS02006249    1.00   0.00  0.00  0.00  1.00  0.00  0.00  0.00  0.17  0.00
  WS02006249WS02006248    1.00   0.00  0.01  0.00  0.95  0.00  0.05  0.00  0.00  0.00
  WS02006248WS02006247    1.00   0.01  0.00  0.00  0.98  0.00  0.00  0.01  0.04  0.00
  WS02006247WS02006245    1.00   0.01  0.00  0.00  0.97  0.00  0.00  0.02  0.00  0.00
  WS02006245WS02006243    1.00   0.00  0.00  0.00  0.96  0.00  0.00  0.03  0.01  0.00
  WS02006243WS02006242    1.00   0.00  0.00  0.00  0.99  0.00  0.00  0.00  0.18  0.00
  WS02006242WS02006240    1.00   0.00  0.00  0.00  0.99  0.00  0.01  0.00  0.00  0.00
  WS02006240WS02006239    1.00   0.00  0.00  0.00  0.96  0.00  0.00  0.04  0.01  0.00
  WS02006239WS02006238    1.00   0.00  0.00  0.00  1.00  0.00  0.00  0.00  0.12  0.00
  WS02006238WS02006235    1.00   0.00  0.00  0.00  1.00  0.00  0.00  0.00  0.00  0.00
  WS02006235WS02006234    1.00   0.00  0.00  0.00  0.97  0.00  0.03  0.00  0.00  0.00
  WS02006234WS02006232    1.00   0.00  0.00  0.00  1.00  0.00  0.00  0.00  0.08  0.00
  WS02006232WS02006231    1.00   0.00  0.00  0.00  1.00  0.00  0.00  0.00  0.00  0.00
  WS02006231WS02006230    1.00   0.00  0.00  0.00  0.73  0.00  0.26  0.00  0.00  0.00
  WS02006230WS02006229    1.00   0.00  0.00  0.00  1.00  0.00  0.00  0.00  0.01  0.00
  WS02006228WS02006109    1.00   0.00  0.00  0.00  1.00  0.00  0.00  0.00  0.00  0.00
  WS02006116WS02004401    1.00   0.01  0.00  0.00  0.99  0.00  0.00  0.00  0.01  0.00
  WS02006115WS02006116    1.00   0.01  0.00  0.00  0.98  0.00  0.00  0.02  0.01  0.00
  WS02006113WS02006111    1.00   0.01  0.00  0.00  0.07  0.93  0.00  0.00  0.12  0.00
  WS02006112WS02006115    1.00   0.01  0.00  0.00  0.99  0.00  0.00  0.00  0.00  0.00
  WS02006111WS02006112    1.00   0.01  0.00  0.00  0.99  0.00  0.00  0.00  0.79  0.00
  WS02006110WS02006113    1.00   0.00  0.00  0.00  0.99  0.00  0.00  0.00  0.00  0.00
  WS02006109WS02006110    1.00   0.00  0.00  0.00  1.00  0.00  0.00  0.00  0.00  0.00
  WS02004411WS02004412    1.00   0.05  0.00  0.00  0.95  0.00  0.00  0.00  0.00  0.00
  WS02004401WS02004402    1.00   0.01  0.00  0.00  0.99  0.00  0.00  0.00  0.01  0.00
  WS02004413WS02003067    1.00   0.05  0.01  0.00  0.00  0.00  0.94  0.00  0.00  0.00
  WS02004412WS02004413    1.00   0.05  0.00  0.00  0.95  0.00  0.00  0.00  0.00  0.00
  WS02004410WS02004411    1.00   0.05  0.00  0.00  0.95  0.00  0.00  0.00  0.00  0.00
  WS02004409WS02004410    1.00   0.04  0.00  0.00  0.96  0.00  0.00  0.00  0.00  0.00
  WS02004407WS02004409    1.00   0.04  0.00  0.00  0.95  0.01  0.00  0.00  0.82  0.00
  WS02004406WS02004407    1.00   0.00  0.04  0.00  0.96  0.00  0.00  0.00  0.00  0.00
  WS02004405WS02004406    1.00   0.00  0.00  0.00  1.00  0.00  0.00  0.00  0.02  0.00
  WS02004404WS02004405    1.00   0.00  0.00  0.00  1.00  0.00  0.00  0.00  0.00  0.00
  WS02004403WS02004404    1.00   0.00  0.01  0.00  0.99  0.00  0.00  0.00  0.02  0.00
  WS02004402WS02004403    1.00   0.01  0.00  0.00  0.99  0.00  0.00  0.00  0.00  0.00
  WS02004139WS02001211    1.00   0.00  0.00  0.00  1.00  0.00  0.00  0.00  0.00  0.00
  WS02004138WS02004139    1.00   0.00  0.00  0.00  1.00  0.00  0.00  0.00  1.00  0.00
  WS02003067WS02003066    1.00   0.06  0.00  0.00  0.94  0.00  0.00  0.00  0.00  0.00
  WS02001213WS02003059    1.00   0.00  0.00  0.00  1.00  0.00  0.00  0.00  0.00  0.00
  WS02001212WS02001213    1.00   0.00  0.00  0.00  0.93  0.00  0.07  0.00  0.00  0.00
  WS02001211WS02001212    1.00   0.00  0.00  0.00  1.00  0.00  0.00  0.00  0.00  0.00
  WS02003072WS02003073    1.00   0.00  0.00  0.00  0.00  0.00  0.00  1.00  0.00  0.00
  WS02003069WS02003072    1.00   0.00  0.00  0.00  1.00  0.00  0.00  0.00  0.11  0.00
  WS02003060WS02003069    1.00   0.00  0.00  0.00  0.99  0.01  0.00  0.00  0.10  0.00
  WS02003059WS02003060    1.00   0.00  0.00  0.00  1.00  0.00  0.00  0.00  0.00  0.00
  HS02004901HS02004770    1.00   0.03  0.00  0.00  0.97  0.00  0.00  0.00  0.00  0.00
  HS02004876HS02004881    1.00   0.01  0.00  0.00  0.91  0.08  0.00  0.00  0.00  0.00
  HS02004870HS02004876    1.00   0.00  0.00  0.00  1.00  0.00  0.00  0.00  0.95  0.00
  HS02004842HS02004848    1.00   0.00  0.03  0.00  0.97  0.00  0.00  0.00  0.57  0.00
  HS02004837HS02004842    1.00   0.00  0.00  0.00  1.00  0.00  0.00  0.00  0.11  0.00
  HS02004830HS02004837    1.00   0.00  0.00  0.00  1.00  0.00  0.00  0.00  0.99  0.00
  HS02004824HS02004830    1.00   0.00  0.00  0.00  1.00  0.00  0.00  0.00  0.03  0.00
  HS02004817HS02004824    1.00   0.00  0.00  0.00  1.00  0.00  0.00  0.00  0.92  0.00
  HS02004770HS02004777    1.00   0.00  0.03  0.00  0.97  0.00  0.00  0.00  0.02  0.00
  HS02004799HS02004480    1.00   0.00  0.01  0.00  0.96  0.00  0.03  0.00  0.00  0.00
  HS02004792HS02004799    1.00   0.00  0.00  0.00  1.00  0.00  0.00  0.00  0.98  0.00
  HS02004788HS02004792    1.00   0.00  0.00  0.00  1.00  0.00  0.00  0.00  0.98  0.00
  HS02004785HS02004788    1.00   0.00  0.00  0.00  1.00  0.00  0.00  0.00  0.00  0.00
  HS02004777HS02004785    1.00   0.00  0.00  0.00  1.00  0.00  0.00  0.00  0.11  0.00
  HS02004480HS02004478    1.00   0.03  0.00  0.00  0.72  0.00  0.00  0.25  0.00  0.00
  HS02004479HS02004480    1.00   0.01  0.00  0.00  0.99  0.00  0.00  0.00  0.11  0.00
  HS02004862HS02004870    1.00   0.00  0.00  0.00  1.00  0.00  0.00  0.00  0.02  0.00
  HS02004848HS02004852    1.00   0.03  0.00  0.00  0.97  0.00  0.00  0.00  0.79  0.00
  HS02004856HS02004862    1.00   0.00  0.04  0.00  0.96  0.00  0.00  0.00  0.84  0.00
  HS02004852HS02004856    1.00   0.03  0.00  0.00  0.97  0.00  0.00  0.00  0.77  0.00
  HS02004802HS02004478    1.00   0.03  0.00  0.00  0.97  0.00  0.00  0.00  0.02  0.00
  HS02004478WS02006287    1.00   0.04  0.00  0.00  0.78  0.18  0.00  0.00  0.62  0.00
  HS02004817HS02004807    1.00   0.00  0.03  0.00  0.97  0.00  0.00  0.00  0.01  0.00
  HS02004807HS02004802    1.00   0.03  0.00  0.00  0.97  0.00  0.00  0.00  0.00  0.00
  YS02001759YS02001757    1.00   0.00  0.00  0.00  1.00  0.00  0.00  0.00  0.15  0.00
  YS02001762YS02001759    1.00   0.00  0.00  0.00  1.00  0.00  0.00  0.00  0.02  0.00
  YS02001765YS02001762    1.00   0.00  0.00  0.00  1.00  0.00  0.00  0.00  0.13  0.00
  YS02001770YS02001767    1.00   0.00  0.00  0.00  1.00  0.00  0.00  0.00  0.00  0.00
  YS02001774YS02001770    1.00   0.00  0.03  0.00  0.97  0.00  0.00  0.00  0.02  0.00
  YS02001779YS02001774    1.00   0.00  0.00  0.00  1.00  0.00  0.00  0.00  0.16  0.00
  YS02001649YS02001757    1.00   0.00  0.00  0.00  1.00  0.00  0.00  0.00  0.15  0.00
  YS02001767YS02001765    1.00   0.00  0.00  0.00  1.00  0.00  0.00  0.00  0.00  0.00
  YS02006561YS02001783    1.00   0.04  0.00  0.00  0.35  0.61  0.00  0.00  0.43  0.00
  YS02001783YS02001784    1.00   0.00  0.04  0.00  0.96  0.00  0.00  0.00  0.00  0.00
  YS02001784YS02001785    1.00   0.00  0.00  0.00  1.00  0.00  0.00  0.00  0.16  0.00
  YS02001788YS02001790    1.00   0.00  0.00  0.00  0.38  0.62  0.00  0.00  0.36  0.00
  YS02001790YS02001791    1.00   0.00  0.00  0.00  0.36  0.64  0.00  0.00  0.43  0.00
  YS02001791YS02001793    1.00   0.00  0.00  0.00  0.39  0.61  0.00  0.00  0.02  0.00
  YS02001910YS02001907    1.00   0.00  0.00  0.00  0.99  0.00  0.00  0.01  0.12  0.00
  YS02001786YS02001788    1.00   0.00  0.00  0.00  0.36  0.64  0.00  0.00  0.00  0.00
  YS02001915YS02001910    1.00   0.00  0.00  0.00  0.99  0.01  0.00  0.00  0.13  0.00
  YS02001918YS02001915    1.00   0.00  0.00  0.00  0.99  0.00  0.00  0.00  0.52  0.00
  YS02001923YS02001920    1.00   0.00  0.00  0.00  1.00  0.00  0.00  0.00  0.75  0.00
  YS02001926YS02001923    1.00   0.00  0.02  0.00  0.21  0.00  0.78  0.00  0.00  0.00
  YS02001929YS02001926    1.00   0.00  0.03  0.00  0.97  0.00  0.00  0.00  0.66  0.00
  YS02001920YS02001918    1.00   0.00  0.00  0.00  1.00  0.00  0.00  0.00  0.00  0.00
  YS02001629YS02163301    1.00   0.03  0.00  0.00  0.96  0.00  0.00  0.00  0.00  0.00
  YS02001619YS02001622    1.00   0.03  0.00  0.00  0.97  0.00  0.00  0.00  0.00  0.00
  YS02001622YS02001625    1.00   0.03  0.00  0.00  0.97  0.00  0.00  0.00  0.03  0.00
  YS02001625YS02001629    1.00   0.03  0.01  0.00  0.95  0.00  0.01  0.00  0.00  0.00
  YS02163301YS02001633    1.00   0.00  0.03  0.00  0.97  0.00  0.00  0.00  0.00  0.00
  YS02163601YS02164001    1.00   0.00  0.02  0.00  0.98  0.00  0.00  0.00  0.00  0.00
  YS02164001YS02001641    1.00   0.00  0.02  0.00  0.98  0.00  0.00  0.00  0.05  0.00
  YS02001641YS02001644    1.00   0.00  0.00  0.00  1.00  0.00  0.00  0.00  0.00  0.00
  YS02001647YS02001649    1.00   0.00  0.04  0.00  0.96  0.00  0.00  0.00  0.01  0.00
  YS02006553YS02006556    1.00   0.00  0.00  0.00  1.00  0.00  0.00  0.00  0.03  0.00
  YS02006556YS02006558    1.00   0.00  0.00  0.00  1.00  0.00  0.00  0.00  0.00  0.00
  YSB6556YSB1171          1.00   0.01  0.02  0.00  0.97  0.00  0.00  0.00  0.00  0.00
  YS02001907YS02006553    1.00   0.00  0.01  0.00  0.99  0.00  0.00  0.00  0.00  0.00
  YS02006558YS02006561    1.00   0.04  0.00  0.00  0.20  0.76  0.00  0.00  0.44  0.00
  YS02001633YS02163601    1.00   0.00  0.00  0.00  1.00  0.00  0.00  0.00  0.14  0.00
  YS02001644YS02001647    1.00   0.00  0.04  0.00  0.96  0.00  0.00  0.00  0.00  0.00
  YS02001745YS02001748    1.00   0.00  0.00  0.00  0.94  0.00  0.00  0.06  0.01  0.00
  YS02001748YS02001751    1.00   0.00  0.00  0.00  0.98  0.02  0.00  0.00  0.14  0.00
  YS02001751YS02001754    1.00   0.00  0.00  0.00  0.96  0.00  0.00  0.04  0.01  0.00
  YS02001754YS02001757    1.00   0.00  0.00  0.00  1.00  0.00  0.00  0.00  0.16  0.00
  YS02001882YS02001884    1.00   0.03  0.00  0.00  0.97  0.00  0.00  0.00  0.00  0.00
  YS02001884YS02001887    1.00   0.02  0.01  0.00  0.97  0.00  0.00  0.00  0.00  0.00
  YS02001890YS02001895    1.00   0.00  0.03  0.00  0.96  0.00  0.00  0.00  0.00  0.00
  YS02001895YS02001898    1.00   0.04  0.00  0.00  0.96  0.00  0.01  0.00  0.00  0.00
  YS02001898YS02001901    1.00   0.04  0.00  0.00  0.96  0.00  0.00  0.00  0.01  0.00
  YS02001901YS02001904    1.00   0.04  0.00  0.00  0.96  0.00  0.00  0.00  0.00  0.00
  YS02001904YS02001907    1.00   0.00  0.04  0.00  0.96  0.00  0.00  0.00  0.00  0.00
  YS02001887YS02001890    1.00   0.00  0.00  0.00  0.99  0.00  0.01  0.00  0.00  0.00
  YS02001652YS02001649    1.00   0.00  0.00  0.00  1.00  0.00  0.00  0.00  0.15  0.00
  YS02001655YS02001652    1.00   0.00  0.00  0.00  0.96  0.00  0.00  0.04  0.01  0.00
  YS02001658YS02001655    1.00   0.00  0.03  0.00  0.95  0.02  0.00  0.00  0.02  0.00
  YS02001661YS02001658    1.00   0.03  0.00  0.00  0.94  0.03  0.00  0.00  0.01  0.00
  YS02001664YS02001661    1.00   0.03  0.00  0.00  0.94  0.03  0.00  0.00  0.09  0.00
  YSB1154YSB6556          1.00   0.03  0.00  0.00  0.97  0.00  0.00  0.00  0.01  0.00
  YSB1174YSB1171          1.00   0.01  0.01  0.00  0.98  0.00  0.00  0.00  0.00  0.00
  YSB1171HS02004479       1.00   0.01  0.00  0.00  0.99  0.00  0.00  0.00  0.10  0.00
  HS02004881HS02006253    1.00   0.01  0.00  0.00  0.84  0.01  0.00  0.14  0.70  0.00
  YS02001793JiankangQianchi    1.00   0.00  0.00  0.00  0.71  0.29  0.00  0.00  0.34  0.00
  YS02001757CaochengTiaoxuchi    1.00   0.00  0.05  0.00  0.92  0.03  0.00  0.00  0.00  0.00
  WSF200WS02003060        1.00   0.00  0.03  0.00  0.97  0.00  0.00  0.00  0.34  0.00
  1                       1.00   0.00  0.00  0.00  0.00  1.00  0.00  0.00  0.52  0.00
  
  
  *************************
  Conduit Surcharge Summary
  *************************
  
  ----------------------------------------------------------------------------
                                                           Hours        Hours 
                         --------- Hours Full --------   Above Full   Capacity
  Conduit                Both Ends  Upstream  Dnstream   Normal Flow   Limited
  ----------------------------------------------------------------------------
  WS02006229WS02006228        4.31      4.42      4.31      5.29         4.31
  WS02006256WS02006235        6.43      6.44      6.96      4.62         0.01
  WS02006253WS02006251        3.03      3.03      3.12      0.01         0.05
  WS02006252WS02006251        2.37      2.37      3.65      2.37         0.01
  WS02006251WS02006249        3.05      3.06      3.14      1.51         1.28
  WS02006249WS02006248        3.03      3.03      3.14      4.58         0.01
  WS02006248WS02006247        3.11      3.11      3.32      0.01         0.01
  WS02006247WS02006245        3.27      3.36      3.27      5.09         3.00
  WS02006245WS02006243        3.30      3.32      3.37      0.52         0.49
  WS02006243WS02006242        3.43      3.43      3.91      0.01         0.01
  WS02006242WS02006240        3.62      3.62      4.12      2.84         0.01
  WS02006240WS02006239        3.66      3.70      3.80      1.40         0.86
  WS02006239WS02006238        4.06      4.14      4.16      1.49         1.08
  WS02006238WS02006235        4.09      4.09      4.37      0.01         0.02
  WS02006235WS02006234        3.70      3.70      4.02      6.36         0.02
  WS02006234WS02006232        3.84      3.84      4.48      1.02         1.00
  WS02006232WS02006231        2.94      2.94      4.48      1.26         0.01
  WS02006231WS02006230        2.48      2.48      3.02      6.33         0.01
[...]
  YS02001779YS02001774        6.30      6.30      6.35      0.01         0.01
  YS02001649YS02001757        6.36      6.36      6.39      0.01         0.01
  YS02001767YS02001765        6.34      6.34      6.35      0.01         0.01
  YS02006561YS02001783        1.64      1.64      1.88      0.01         0.01
  YS02001783YS02001784        1.86      1.88      1.86      2.16         1.86
  YS02001784YS02001785        1.77      1.86      1.77      2.91         1.77
  YS02001788YS02001790        1.68      1.68      2.52      0.01         0.01
  YS02001790YS02001791        2.52      2.52      2.61      1.83         1.81
  YS02001791YS02001793        2.61      2.61      2.97      0.01         0.01
  YS02001910YS02001907        1.92      1.92      2.36      0.01         0.01
  YS02001786YS02001788        1.68      1.77      1.68      2.51         1.68
  YS02001915YS02001910        1.78      1.78      1.92      0.01         0.01
  YS02001918YS02001915        1.62      1.62      1.78      0.01         0.01
  YS02001923YS02001920        1.47      1.47      1.65      0.01         0.01
  YS02001926YS02001923        0.01      0.01      0.01      0.01         0.01
  YS02001929YS02001926        0.01      0.01      0.01      0.01         0.01
  YS02001920YS02001918        1.62      1.62      1.65      0.01         0.01
  YS02001629YS02163301        6.33      6.33      6.33      0.01         0.01
  YS02001619YS02001622        6.25      6.25      6.27      0.01         0.02
  YS02001622YS02001625        6.27      6.27      6.32      0.01         0.01
  YS02001625YS02001629        6.25      6.25      6.32      0.01         0.01
  YS02163301YS02001633        6.33      6.33      6.34      0.01         0.01
  YS02163601YS02164001        6.34      6.34      6.36      0.01         0.01
  YS02164001YS02001641        6.34      6.34      6.35      0.01         0.02
  YS02001641YS02001644        6.35      6.35      6.35      2.38         2.47
  YS02001647YS02001649        6.32      6.32      6.36      0.01         0.01
  YS02006553YS02006556        2.10      2.10      2.44      0.01         0.01
  YS02006556YS02006558        2.22      2.22      2.53      0.01         0.01
  YSB6556YSB1171              0.01      0.01      0.30      0.01         0.01
  YS02001907YS02006553        2.92      2.92      3.11      0.01         0.01
  YS02006558YS02006561        1.74      2.07      1.74      2.78         1.74
  YS02001633YS02163601        6.34      6.34      6.36      0.01         0.01
  YS02001644YS02001647        6.32      6.32      6.35      0.01         0.01
  YS02001745YS02001748        0.01      0.01      6.21      0.01         0.01
  YS02001748YS02001751        6.22      6.22      6.25      0.01         0.01
  YS02001751YS02001754        6.25      6.25      6.30      0.01         0.01
  YS02001754YS02001757        6.32      6.32      6.39      0.01         0.01
  YS02001882YS02001884        1.79      1.79      1.81      0.01         0.01
  YS02001884YS02001887        1.84      1.84      1.86      0.01         0.01
  YS02001890YS02001895        1.77      1.77      1.94      0.01         0.01
  YS02001895YS02001898        1.76      1.76      1.77      0.01         0.01
  YS02001898YS02001901        1.77      1.77      1.83      0.01         0.01
  YS02001901YS02001904        1.82      1.82      1.83      0.01         0.01
  YS02001904YS02001907        1.82      1.82      2.47      0.01         0.01
  YS02001887YS02001890        1.88      1.88      1.91      0.52         0.01
  YS02001652YS02001649        6.32      6.32      6.36      0.01         0.01
  YS02001655YS02001652        6.26      6.26      6.31      0.01         0.01
  YS02001658YS02001655        6.21      6.21      6.26      0.01         0.01
  YS02001661YS02001658        0.16      0.16      6.21      0.01         0.01
  YS02001664YS02001661        0.01      0.01      1.83      0.01         0.01
  HS02004881HS02006253        0.01      0.01      2.05      0.01         0.01
  YS02001793JiankangQianchi        2.88      2.88      4.43      0.01         0.01
  YS02001757CaochengTiaoxuchi        5.91      5.91      6.39      0.01         0.01
  
  
  ***************
  Pumping Summary
  ***************
  
  ---------------------------------------------------------------------------------------------------------
                                                  Min       Avg       Max     Total     Power    % Time Off
                        Percent   Number of      Flow      Flow      Flow    Volume     Usage    Pump Curve
  Pump                 Utilized   Start-Ups       LPS       LPS       LPS  10^6 ltr     Kw-hr    Low   High
  ---------------------------------------------------------------------------------------------------------
  CC-Pump-1               70.82           3      0.00    169.61    200.00     3.420      3.59    0.0    0.0
  CC-Pump-2               47.90           8      0.00    105.56    200.00     1.680      2.13    0.0    0.0
  JK-Pump-1               62.50           4      0.00    240.67    300.00     4.150     56.29    0.0    0.0
  JK-Pump-2               62.50           4      0.00    471.49    683.00     8.254    100.57    0.0   97.9
  XR-Pump-1              100.00           1      0.00     95.00     95.00     2.736     23.32    0.0    0.0
  XR-Pump-2              100.00           1      0.00     95.00     95.00     2.736     23.32    0.0    0.0
  XR-Pump-3               91.66           2      0.00     94.12     95.00     2.451     17.03    0.0    0.0
  XR-Pump-4               91.66           2      0.00     94.12     95.00     2.451     17.03    0.0    0.0
  
  
  ***************************
  Link Pollutant Load Summary
  ***************************
  
  ------------------------------------------------------------------------------------------
                                 COD            SS            TN            TP         NH4-N
  Link                            kg            kg            kg            kg            kg
  ------------------------------------------------------------------------------------------
  WS02003066WSF200          1186.367      2280.332        28.251         2.349        14.532
  WS02006287WS02006284       439.483       856.795        12.716         1.197         6.844
  WS02006284WS02006280       440.003       857.633        12.765         1.203         6.875
  WS02006280WS02006229       440.012       857.691        12.764         1.203         6.873
  WS02006229WS02006228      1185.908      2278.612        27.787         2.278        14.224
  WS02006256WS02006235       236.839       447.248         4.986         0.376         2.486
  WS02006253WS02006251        89.385       178.588         1.972         0.149         0.980
  WS02006252WS02006251       507.157       965.712         9.772         0.668         4.707
  WS02006251WS02006249       583.134      1119.051        11.485         0.800         5.564
  WS02006249WS02006248       522.515       999.543        10.319         0.720         5.002
  WS02006248WS02006247       518.964       992.020        10.253         0.715         4.971
  WS02006247WS02006245       519.251       992.692        10.258         0.715         4.973
  WS02006245WS02006243       519.818       994.006        10.265         0.716         4.976
  WS02006243WS02006242       520.360       995.089        10.281         0.717         4.985
  WS02006242WS02006240       520.641       995.504        10.296         0.719         4.994
  WS02006240WS02006239       521.157       996.169        10.322         0.722         5.010
  WS02006239WS02006238       521.376       996.061        10.353         0.726         5.029
  WS02006238WS02006235       520.869       994.663        10.356         0.727         5.033
  WS02006235WS02006234       749.525      1427.490        15.110         1.082         7.394
  WS02006234WS02006232       748.838      1426.273        15.096         1.081         7.387
  WS02006232WS02006231       747.977      1424.686        15.079         1.080         7.380
  WS02006231WS02006230       747.425      1423.690        15.072         1.080         7.377
  WS02006230WS02006229       748.092      1424.990        15.097         1.082         7.391
  WS02006228WS02006109      1184.666      2276.382        27.752         2.275        14.205
  WS02006116WS02004401      1202.791      2310.296        28.659         2.382        14.743
  WS02006115WS02006116      1204.367      2313.145        28.706         2.386        14.768
  WS02006113WS02006111      1190.249      2284.849        28.489         2.370        14.673
  WS02006112WS02006115      1205.706      2315.536        28.752         2.390        14.794
  WS02006111WS02006112      1189.634      2283.689        28.471         2.369        14.663
  WS02006110WS02006113      1190.745      2285.663        28.507         2.372        14.684
  WS02006109WS02006110      1191.928      2287.703        28.551         2.376        14.708
  WS02004411WS02004412      1190.761      2288.289        28.391         2.362        14.608
  WS02004401WS02004402      1201.262      2307.557        28.608         2.377        14.714
  WS02004413WS02003067      1187.338      2282.151        28.271         2.350        14.542
  WS02004412WS02004413      1189.081      2285.234        28.345         2.358        14.584
  WS02004410WS02004411      1192.111      2290.755        28.426         2.365        14.627
  WS02004409WS02004410      1193.380      2293.057        28.463         2.368        14.647
  WS02004407WS02004409      1194.523      2295.144        28.491         2.370        14.661
  WS02004406WS02004407      1194.947      2295.928        28.496         2.370        14.663
  WS02004405WS02004406      1196.994      2299.545        28.580         2.379        14.712
  WS02004404WS02004405      1198.697      2302.728        28.599         2.379        14.718
  WS02004403WS02004404      1198.442      2302.492        28.518         2.368        14.665
  WS02004402WS02004403      1199.748      2304.832        28.562         2.372        14.689
  WS02004139WS02001211      1400.273      2371.906       105.240        12.698        64.447
  WS02004138WS02004139      1406.374      2382.182       105.697        12.753        64.727
  WS02003067WS02003066      1186.546      2280.665        28.257         2.349        14.535
  WS02001213WS02003059      1434.883      2426.179       108.839        13.153        66.709
  WS02001212WS02001213      1443.888      2441.197       109.554        13.240        67.149
  WS02001211WS02001212      1445.847      2444.400       109.723        13.260        67.254
  WS02003072WS02003073      2723.040      4867.811       147.296        16.784        87.638
  WS02003069WS02003072      2728.099      4876.136       147.710        16.834        87.893
  WS02003060WS02003069      2731.156      4881.481       147.877        16.853        87.992
  WS02003059WS02003060      1432.173      2421.523       108.659        13.131        66.600
  HS02004901HS02004770        19.399        38.442         0.369         0.028         0.174
  HS02004876HS02004881        64.873       131.207         1.384         0.100         0.676
  HS02004870HS02004876        49.332        99.669         1.097         0.080         0.538
  HS02004842HS02004848         9.280        18.140         0.191         0.013         0.089
  HS02004837HS02004842        13.929        25.531         0.662         0.072         0.384
  HS02004830HS02004837        82.265       147.263         4.950         0.580         2.988
  HS02004824HS02004830        83.081       148.605         5.025         0.589         3.035
  HS02004817HS02004824       119.546       223.377         5.760         0.636         3.392
  HS02004770HS02004777        73.687       147.831         1.507         0.104         0.700
  HS02004799HS02004480       235.409       461.168         5.709         0.488         2.901
  HS02004792HS02004799       214.467       417.857         5.360         0.468         2.741
  HS02004788HS02004792       116.597       227.795         3.360         0.307         1.772
  HS02004785HS02004788        75.131       150.141         1.656         0.123         0.794
  HS02004777HS02004785        74.438       149.029         1.592         0.115         0.755
  HS02004480HS02004478       294.760       580.475         6.734         0.563         3.389
  HS02004479HS02004480        62.987       125.176         1.335         0.113         0.681
  HS02004862HS02004870        37.563        74.900         0.865         0.066         0.427
  HS02004848HS02004852        15.822        31.382         0.320         0.022         0.149
  HS02004856HS02004862        25.853        52.201         0.514         0.035         0.243
  HS02004852HS02004856        15.836        31.406         0.320         0.022         0.149
  HS02004802HS02004478       145.645       277.792         6.047         0.642         3.495
  HS02004478WS02006287       439.629       857.002        12.733         1.199         6.854
  HS02004817HS02004807       118.258       221.347         5.627         0.619         3.308
  HS02004807HS02004802       145.809       278.043         6.079         0.646         3.515
  YS02001759YS02001757       454.577       858.575         8.900         0.622         4.339
  YS02001762YS02001759       228.102       428.541         4.679         0.329         2.302
  YS02001765YS02001762       229.573       432.472         4.723         0.333         2.325
  YS02001770YS02001767       233.784       443.805         4.650         0.316         2.263
  YS02001774YS02001770       436.298       857.123         8.405         0.564         4.067
  YS02001779YS02001774       435.324       855.253         8.464         0.574         4.110
  YS02001649YS02001757       425.581       790.428         8.450         0.585         4.064
  YS02001767YS02001765       231.815       437.930         4.776         0.337         2.353
  YS02006561YS02001783      1275.442      2407.610        26.327         1.946        13.034
  YS02001783YS02001784      1275.307      2407.389        26.322         1.945        13.031
  YS02001784YS02001785      1282.808      2419.412        27.050         2.036        13.486
  YS02001788YS02001790      1283.383      2420.322        27.123         2.046        13.533
  YS02001790YS02001791      1284.365      2421.888        27.224         2.059        13.596
  YS02001791YS02001793      1284.205      2421.593        27.218         2.058        13.593
  YS02001910YS02001907       566.113      1068.411        12.784         0.944         6.454
  YS02001786YS02001788      1283.022      2419.773        27.079         2.040        13.505
  YS02001915YS02001910       566.242      1068.616        12.744         0.938         6.427
  YS02001918YS02001915       278.135       503.904         6.888         0.593         3.621
  YS02001923YS02001920       253.483       462.181         4.836         0.343         2.351
  YS02001926YS02001923       250.599       457.101         4.718         0.331         2.282
  YS02001929YS02001926       248.775       453.918         4.641         0.322         2.238
  YS02001920YS02001918       274.784       496.760         6.809         0.588         3.581
  YS02001629YS02163301        90.154       160.055         1.906         0.125         0.893
  YS02001619YS02001622       259.790       485.852         5.254         0.348         2.466
  YS02001622YS02001625       258.864       484.410         5.230         0.347         2.455
  YS02001625YS02001629        87.208       154.210         1.860         0.121         0.870
  YS02163301YS02001633        95.001       169.561         1.983         0.132         0.932
  YS02163601YS02164001       530.485       978.767        10.201         0.737         4.903
  YS02164001YS02001641       530.375       978.567        10.188         0.736         4.896
  YS02001641YS02001644       531.432       980.344        10.201         0.737         4.901
  YS02001647YS02001649       575.673      1077.680        11.377         0.795         5.433
  YS02006553YS02006556       794.034      1480.004        16.875         1.278         8.453
  YS02006556YS02006558       794.194      1480.299        16.841         1.273         8.430
  YSB6556YSB1171              36.523        72.737         0.718         0.058         0.359
  YS02001907YS02006553       794.028      1480.011        16.904         1.282         8.472
  YS02006558YS02006561      1275.451      2407.621        26.327         1.946        13.034
  YS02001633YS02163601       531.055       979.662        10.176         0.733         4.885
  YS02001644YS02001647       583.080      1091.679        11.496         0.804         5.489
  YS02001745YS02001748       354.716       680.971         7.005         0.438         3.365
  YS02001748YS02001751       354.055       679.854         7.013         0.441         3.374
  YS02001751YS02001754       353.159       678.387         6.998         0.441         3.368
  YS02001754YS02001757       354.059       679.754         7.169         0.464         3.478
  YS02001882YS02001884         4.695         8.367         0.089         0.007         0.044
  YS02001884YS02001887         7.524        13.594         0.142         0.011         0.070
  YS02001890YS02001895       615.827      1177.291        11.385         0.860         5.556
  YS02001895YS02001898       615.699      1177.144        11.380         0.860         5.553
  YS02001898YS02001901       615.637      1176.974        11.379         0.860         5.553
  YS02001901YS02001904       615.266      1176.440        11.381         0.861         5.555
  YS02001904YS02001907       615.795      1177.230        11.446         0.869         5.596
  YS02001887YS02001890       669.551      1284.742        12.367         0.937         6.038
  YS02001652YS02001649       305.929       582.001         6.062         0.439         2.850
  YS02001655YS02001652       306.460       582.870         6.077         0.440         2.858
  YS02001658YS02001655       305.999       582.153         5.990         0.428         2.801
  YS02001661YS02001658       306.641       583.214         6.006         0.429         2.808
  YS02001664YS02001661       323.914       611.307         6.407         0.457         2.992
  YSB1154YSB6556              36.101        72.069         0.671         0.053         0.330
  YSB1174YSB1171              24.949        50.015         0.489         0.039         0.242
  YSB1171HS02004479           62.907       125.028         1.341         0.114         0.684
  HS02004881HS02006253        73.378       148.961         1.535         0.110         0.747
  YS02001793JiankangQianchi      1284.763      2422.493        27.243         2.061        13.607
  YS02001757CaochengTiaoxuchi       783.400      1469.607        15.465         1.059         7.472
  WSF200WS02003060          1185.878      2279.401        28.246         2.349        14.531
  1                         2727.813      4874.209       148.074        16.886        88.137
  CC-Pump-1                  340.866       649.248         6.561         0.449         3.160
  CC-Pump-2                  166.027       315.912         3.204         0.219         1.543
  JK-Pump-1                  344.583       658.857         7.005         0.519         3.463
  JK-Pump-2                  784.481      1499.967        15.947         1.181         7.883
  XR-Pump-1                  384.281       647.907        29.542         3.578        18.129
  XR-Pump-2                  384.281       647.907        29.542         3.578        18.129
  XR-Pump-3                  320.800       546.333        23.460         2.818        14.329
  XR-Pump-4                  320.800       546.333        23.460         2.818        14.329
  

  Analysis begun on:  Sat Jul 10 16:40:34 2021
  Analysis ended on:  Sat Jul 10 16:40:37 2021
  Total elapsed time: 00:00:03