
  EPA STORM WATER MANAGEMENT MODEL - VERSION 5.1 (Build 5.3.0.dev0)
  --------------------------------------------------------------

  WARNING 04: minimum elevation drop used for Conduit WS02004404WS02004405
  WARNING 03: negative offset ignored for Link YS02001904YS02001907
  
  *********************************************************
  NOTE: The summary statistics displayed in this report are
  based on results found at every computational time step,  
  not just on results from each reporting time step.
  *********************************************************
  
  ****************
  Analysis Options
  ****************
  Flow Units ............... LPS
  Process Models:
    Rainfall/Runoff ........ YES
    RDII ................... NO
    Snowmelt ............... NO
    Groundwater ............ NO
    Flow Routing ........... YES
    Ponding Allowed ........ NO
    Water Quality .......... YES
  Infiltration Method ...... HORTON
  Flow Routing Method ...... DYNWAVE
  Surcharge Method ......... EXTRAN
  Starting Date ............ 08/28/2015 08:00:00
  Ending Date .............. 08/28/2015 16:00:00
  Antecedent Dry Days ...... 8.0
  Report Time Step ......... 00:01:00
  Wet Time Step ............ 00:01:00
  Dry Time Step ............ 00:01:00
  Routing Time Step ........ 5.00 sec
  Variable Time Step ....... YES
  Maximum Trials ........... 8
  Number of Threads ........ 4
  Head Tolerance ........... 0.001500 m
  
  
  **************************        Volume         Depth
  Runoff Quantity Continuity     hectare-m            mm
  **************************     ---------       -------
  Total Precipitation ......         6.144        13.452
  Evaporation Loss .........         0.000         0.000
  Infiltration Loss ........         1.067         2.336
  Surface Runoff ...........         4.170         9.131
  Final Storage ............         0.908         1.988
  Continuity Error (%) .....        -0.019
  
  
  **************************           COD            SS            TN            TP         NH4-N
  Runoff Quality Continuity             kg            kg            kg            kg            kg
  **************************    ----------    ----------    ----------    ----------    ----------
  Initial Buildup ..........     41378.656     70582.865      1804.177       168.684      1032.807
  Surface Buildup ..........        23.281        44.448         2.437         0.221         1.414
  Wet Deposition ...........         0.000         0.000         0.000         0.000         0.000
  Sweeping Removal .........         0.000         0.000         0.000         0.000         0.000
  Infiltration Loss ........        98.083       186.386         1.865         0.131         0.889
  BMP Removal ..............         0.000         0.000         0.000         0.000         0.000
  Surface Runoff ...........      3781.731      7084.237        73.043         4.981        34.722
  Remaining Buildup ........     37520.712     63353.973      1731.679       163.791       998.597
  Continuity Error (%) .....         0.003         0.004         0.002         0.001         0.001
  
  
  **************************        Volume        Volume
  Flow Routing Continuity        hectare-m      10^6 ltr
  **************************     ---------     ---------
  Dry Weather Inflow .......         0.630         6.296
  Wet Weather Inflow .......         4.169        41.688
  Groundwater Inflow .......         0.000         0.000
  RDII Inflow ..............         0.000         0.000
  External Inflow ..........         0.105         1.045
  External Outflow .........         2.144        21.445
  Flooding Loss ............         2.310        23.101
  Evaporation Loss .........         0.000         0.000
  Exfiltration Loss ........         0.000         0.000
  Initial Stored Volume ....         0.076         0.761
  Final Stored Volume ......         0.650         6.501
  Continuity Error (%) .....        -2.525
  
  
  **************************           COD            SS            TN            TP         NH4-N
  Quality Routing Continuity            kg            kg            kg            kg            kg
  **************************    ----------    ----------    ----------    ----------    ----------
  Dry Weather Inflow .......      1573.993      2518.389       151.103        18.888        94.440
  Wet Weather Inflow .......      3780.772      7082.568        73.023         4.980        34.713
  Groundwater Inflow .......         0.000         0.000         0.000         0.000         0.000
  RDII Inflow ..............         0.000         0.000         0.000         0.000         0.000
  External Inflow ..........       187.321       299.713        17.983         2.248        11.239
  External Outflow .........      2524.879      4369.346       155.335        18.142        93.653
  Flooding Loss ............      2366.907      4423.336        60.170         5.228        31.561
  Exfiltration Loss ........         0.000         0.000         0.000         0.000         0.000
  Mass Reacted .............         0.000         0.000         0.000         0.000         0.000
  Initial Stored Mass ......         0.000         0.000         0.000         0.000         0.000
  Final Stored Mass ........       517.178       881.629        23.461         2.509        13.606
  Continuity Error (%) .....         2.402         2.286         1.298         0.905         1.120
  
  
  *************************
  Highest Continuity Errors
  *************************
  Node HS02004842 (13.40%)
  Node JK-storage (-11.81%)
  Node YS02001884 (10.48%)
  Node HS02004817 (2.52%)
  Node YSB1171 (2.46%)
  
  
  ***************************
  Time-Step Critical Elements
  ***************************
  Link WS02006252WS02006251 (73.53%)
  Link WS02006280WS02006229 (8.37%)
  Link WS02006238WS02006235 (4.22%)
  Link YS02001793JiankangQianchi (2.39%)
  Link YS02006556YS02006558 (2.00%)
  
  
  ********************************
  Highest Flow Instability Indexes
  ********************************
  Link WS02006113WS02006111 (34)
  Link YS02163301YS02001633 (30)
  Link YS02163601YS02164001 (30)
  Link YS02001629YS02163301 (30)
  Link YS02001619YS02001622 (29)
  
  
  *************************
  Routing Time Step Summary
  *************************
  Minimum Time Step           :     0.50 sec
  Average Time Step           :     1.02 sec
  Maximum Time Step           :     5.00 sec
  Percent in Steady State     :    -0.00
  Average Iterations per Step :     4.00
  Percent Not Converging      :    15.56
  
  
  ***************************
  Subcatchment Runoff Summary
  ***************************
  
  ------------------------------------------------------------------------------------------------------------------------------
                            Total      Total      Total      Total     Imperv       Perv      Total       Total     Peak  Runoff
                           Precip      Runon       Evap      Infil     Runoff     Runoff     Runoff      Runoff   Runoff   Coeff
  Subcatchment                 mm         mm         mm         mm         mm         mm         mm    10^6 ltr      LPS
  ------------------------------------------------------------------------------------------------------------------------------
  sub0                      13.45       0.00       0.00       0.63      12.47       0.31      12.78        0.01     3.75   0.950
  sub1                      13.45       0.00       0.00       1.12      11.88       0.36      12.24        0.08    25.66   0.910
  sub2                      13.45       0.00       0.00       4.44       8.39       0.53       8.92        0.08    25.29   0.663
  sub3                      13.45       0.00       0.00       4.56       8.35       0.42       8.77        0.20    55.75   0.652
  sub4                      13.45       0.00       0.00       1.22      11.72       0.26      11.98        0.25    65.52   0.890
  sub5                      13.45       0.00       0.00       0.68      12.41       0.26      12.67        0.14    44.76   0.942
  sub7                      13.45       0.00       0.00       0.86      12.18       0.35      12.53        0.04    14.26   0.931
  sub8                      13.45       0.00       0.00       0.87      12.17       0.34      12.51        0.08    26.26   0.930
  sub9                      13.45       0.00       0.00       0.88      12.17       0.33      12.50        0.06    19.64   0.929
  sub10                     13.45       0.00       0.00       0.78      12.29       0.29      12.58        0.14    44.00   0.935
  sub11                     13.45       0.00       0.00       0.77      12.31       0.31      12.62        0.15    48.45   0.938
  sub12                     13.45       0.00       0.00       1.25      11.66       0.50      12.16        0.11    38.10   0.904
  sub14                     13.45       0.00       0.00       0.88      12.17       0.33      12.50        0.12    38.67   0.929
  sub15                     13.45       0.00       0.00       3.37       9.35       0.66      10.02        0.17    57.01   0.745
  sub16                     13.45       0.00       0.00       3.56       8.97       0.88       9.85        0.10    37.63   0.732
  sub17                     13.45       0.00       0.00       3.47       9.11       0.84       9.94        0.09    30.67   0.739
  sub22                     13.45       0.00       0.00       4.98       7.63       0.81       8.43        0.53   184.54   0.627
  sub23                     13.45       0.00       0.00       4.17       8.43       0.81       9.24        0.44   154.22   0.687
  sub60                     13.45       0.00       0.00       1.53       9.91       0.09      10.00        3.03   438.14   0.743
  sub61                     13.45       0.00       0.00       2.16       9.99       0.12      10.12        3.12   536.45   0.752
  sub62                     13.45       0.00       0.00       0.98      10.89       0.10      10.99        3.38   552.35   0.817
  sub63                     13.45       0.00       0.00       3.77       8.72       0.14       8.86        2.68   492.63   0.659
  sub64                     13.45       0.00       0.00       1.93       9.52       0.09       9.60        2.92   416.72   0.714
  sub65                     13.45       0.00       0.00       1.67       9.68       0.08       9.76        3.00   423.09   0.726
  sub66                     13.45       0.00       0.00       3.81       8.14       0.09       8.23        2.52   380.66   0.612
  sub67                     13.45       0.00       0.00       0.95      11.42       0.13      11.55        3.56   679.52   0.859
  sub68                     13.45       0.00       0.00       1.75      10.49       0.13      10.63        3.27   586.26   0.790
  sub69                     13.45       0.00       0.00       1.83      10.82       0.19      11.00        2.57   544.72   0.818
  sub70                     13.45      11.23       0.00       7.51      14.72       0.88      15.60        3.57   494.81   0.632
  sub71                     13.45       0.00       0.00       0.99      10.64       0.09      10.73        2.53   389.24   0.797
  sub72                     13.45       0.00       0.00       0.89       8.66       0.05       8.71        1.77   189.18   0.647
  1                         13.45      15.19       0.00       1.40      16.69       4.72      21.41        5.03   484.42   0.747
  2                         13.45       0.00       0.00       3.09       3.22       2.00       5.21        2.09   340.45   0.388
  
  
  ****************************
  Subcatchment Washoff Summary
  ****************************
  
  ------------------------------------------------------------------------------------------
                                 COD            SS            TN            TP         NH4-N
  Subcatchment                    kg            kg            kg            kg            kg
  ------------------------------------------------------------------------------------------
  sub0                         2.670         5.197         0.046         0.004         0.022
  sub1                        11.241        22.423         0.210         0.015         0.101
  sub2                         6.894        13.384         0.145         0.010         0.067
  sub3                        16.925        32.575         0.350         0.024         0.161
  sub4                        25.776        51.909         0.510         0.031         0.245
  sub5                        25.778        50.682         0.460         0.035         0.223
  sub7                         5.751        11.638         0.108         0.007         0.052
  sub8                         8.581        17.755         0.171         0.010         0.082
  sub9                         7.353        15.005         0.142         0.009         0.068
  sub10                       21.202        42.223         0.389         0.028         0.188
  sub11                       20.657        41.614         0.386         0.026         0.187
  sub12                       17.724        35.094         0.321         0.024         0.155
  sub14                       15.732        31.800         0.298         0.020         0.144
  sub15                       20.231        39.321         0.389         0.028         0.182
  sub16                       13.129        25.518         0.249         0.019         0.117
  sub17                       12.049        23.208         0.222         0.017         0.105
  sub22                       62.582       119.432         1.186         0.090         0.554
  sub23                       36.683        72.439         0.776         0.051         0.357
  sub60                      244.233       458.081         4.859         0.299         2.329
  sub61                      302.589       565.081         5.636         0.387         2.714
  sub62                      314.305       596.969         6.133         0.389         2.945
  sub63                      223.526       411.212         4.475         0.315         2.078
  sub64                      306.737       555.076         5.644         0.411         2.696
  sub65                      313.964       570.480         5.815         0.416         2.782
  sub66                      176.514       322.016         3.620         0.237         1.692
  sub67                      466.622       878.076         8.374         0.617         4.049
  sub68                      332.446       627.017         6.357         0.430         3.039
  sub69                      298.415       568.781         5.594         0.394         2.676
  sub70                      504.505       965.080        10.073         0.701         4.726
  sub71                      207.253       397.131         4.255         0.247         2.036
  sub72                      165.509       294.907         3.092         0.212         1.487
  1                          354.118       681.081         7.206         0.502         3.346
  2                           42.953        75.895         1.221         0.074         0.521
  ------------------------------------------------------------------------------------------
  System                    4584.651      8618.098        88.709         6.077        42.125
  
  
  ******************
  Node Depth Summary
  ******************
  
  ---------------------------------------------------------------------------------
                                 Average  Maximum  Maximum  Time of Max    Reported
                                   Depth    Depth      HGL   Occurrence   Max Depth
  Node                 Type       Meters   Meters   Meters  days hr:min      Meters
  ---------------------------------------------------------------------------------
  WS02001211           JUNCTION     0.78     0.85     5.69     0  03:07        0.85
  WS02001212           JUNCTION     0.49     0.58     5.64     0  03:06        0.58
  WS02001213           JUNCTION     0.73     0.85     5.62     0  03:06        0.85
  WS02003069           JUNCTION     0.54     0.72     5.30     0  03:05        0.72
  WS02003072           JUNCTION     0.60     0.76     5.13     0  03:06        0.76
  WS02003073           JUNCTION     0.37     0.48     4.54     0  03:06        0.48
  WS02003060           JUNCTION     0.48     0.63     5.57     0  03:05        0.63
  WS02003066           JUNCTION     0.27     0.39     5.94     0  03:04        0.39
  WS02003059           JUNCTION     0.78     0.91     5.60     0  03:05        0.91
  WS02003067           JUNCTION     0.64     0.82     6.14     0  03:04        0.82
  WS02004401           JUNCTION     0.77     1.23     7.23     0  03:01        1.23
  WS02004402           JUNCTION     0.80     1.22     7.18     0  03:01        1.22
  WS02004403           JUNCTION     0.82     1.19     7.12     0  03:02        1.19
  WS02004404           JUNCTION     0.89     1.24     7.09     0  03:01        1.24
  WS02004406           JUNCTION     0.89     1.16     6.99     0  03:01        1.16
  WS02004409           JUNCTION     0.59     0.96     6.73     0  03:03        0.96
  WS02004410           JUNCTION     0.61     0.95     6.67     0  03:03        0.95
  WS02004411           JUNCTION     0.62     0.93     6.61     0  03:03        0.93
  WS02004412           JUNCTION     0.63     0.90     6.54     0  03:04        0.90
  WS02004413           JUNCTION     0.79     1.02     6.49     0  03:04        1.02
  WS02004405           JUNCTION     0.88     1.21     7.06     0  03:01        1.21
  WS02006109           JUNCTION     0.87     1.65     8.27     0  03:02        1.64
  WS02006110           JUNCTION     0.85     1.44     8.03     0  03:02        1.44
  WS02006111           JUNCTION     0.27     0.88     7.59     0  03:02        0.88
  WS02006112           JUNCTION     0.96     1.55     7.44     0  03:01        1.55
  WS02006113           JUNCTION     0.41     0.92     7.81     0  03:02        0.92
  WS02006115           JUNCTION     0.67     1.21     7.35     0  03:02        1.21
  WS02006116           JUNCTION     0.75     1.26     7.30     0  03:02        1.26
  WS02006230           JUNCTION     0.91     1.87     8.62     0  03:02        1.87
  WS02006231           JUNCTION     0.63     1.52     8.64     0  03:02        1.51
  WS02006232           JUNCTION     0.78     1.62     8.66     0  03:02        1.61
  WS02006234           JUNCTION     0.73     1.52     8.68     0  03:02        1.52
  WS02006235           JUNCTION     0.78     1.53     8.69     0  03:01        1.52
  WS02006238           JUNCTION     0.81     1.55     8.69     0  03:01        1.54
  WS02006240           JUNCTION     0.71     1.40     8.69     0  03:02        1.39
  WS02006242           JUNCTION     0.76     1.42     8.69     0  03:01        1.42
  WS02006243           JUNCTION     0.64     1.27     8.69     0  03:00        1.27
  WS02006245           JUNCTION     0.61     1.21     8.70     0  03:01        1.20
  WS02006247           JUNCTION     0.61     1.20     8.70     0  03:01        1.19
  WS02006248           JUNCTION     0.55     1.10     8.69     0  02:57        1.10
  WS02006249           JUNCTION     0.56     1.09     8.69     0  02:55        1.09
  WS02006239           JUNCTION     0.77     1.48     8.69     0  03:01        1.48
  WS02006251           JUNCTION     0.53     1.28     8.95     0  07:08        1.14
  WS02006252           JUNCTION     0.34     0.83     9.07     0  07:08        0.68
  WS02006253           JUNCTION     0.56     1.53     9.18     0  05:38        1.17
  WS02006256           JUNCTION     1.90     2.35     9.28     0  00:18        2.35
  WS02004138           JUNCTION     0.19     0.20     7.45     0  00:00        0.19
  WS02004139           JUNCTION     0.72     0.79     5.70     0  03:07        0.79
  WS02004407           JUNCTION     0.26     0.40     6.71     0  03:03        0.40
  WS02006228           JUNCTION     0.89     1.82     8.47     0  03:02        1.82
  WS02006229           JUNCTION     0.88     1.90     8.59     0  03:02        1.89
  WS02006280           JUNCTION     0.07     0.30     8.57     0  03:05        0.30
  WS02006284           JUNCTION     0.37     0.65     9.04     0  03:02        0.64
  WS02006287           JUNCTION     0.09     0.39     9.34     0  03:02        0.39
  WSF200               JUNCTION     0.26     0.44     5.67     0  03:04        0.44
  HS02004901           JUNCTION     0.12     0.38    10.20     0  03:01        0.37
  HS02004881           JUNCTION     0.01     0.05     9.08     0  03:01        0.05
  HS02004876           JUNCTION     0.04     0.16     9.19     0  03:01        0.16
  HS02004870           JUNCTION     0.01     0.09     9.38     0  03:01        0.09
  HS02004862           JUNCTION     0.02     0.11     9.49     0  03:01        0.11
  HS02004856           JUNCTION     0.08     0.15     9.58     0  03:01        0.15
  HS02004852           JUNCTION     0.01     0.07     9.59     0  03:02        0.07
  HS02004848           JUNCTION     0.01     0.07     9.67     0  03:01        0.07
  HS02004842           JUNCTION     0.33     0.40     9.67     0  03:01        0.40
  HS02004837           JUNCTION     0.03     0.09     9.67     0  03:01        0.09
  HS02004830           JUNCTION     0.04     0.10     9.57     0  03:02        0.10
  HS02004824           JUNCTION     0.02     0.13     9.53     0  03:02        0.13
  HS02004817           JUNCTION     0.44     0.69     9.54     0  03:02        0.69
  HS02004807           JUNCTION     0.13     0.36     9.53     0  03:02        0.36
  HS02004802           JUNCTION     0.16     0.39     9.52     0  03:02        0.39
  HS02004799           JUNCTION     0.12     0.46     9.68     0  03:01        0.46
  HS02004792           JUNCTION     0.03     0.22     9.74     0  03:01        0.21
  HS02004788           JUNCTION     0.02     0.16    10.05     0  03:02        0.16
  HS02004785           JUNCTION     0.04     0.25    10.15     0  03:02        0.25
  HS02004777           JUNCTION     0.15     0.39    10.19     0  03:01        0.39
  HS02004770           JUNCTION     0.12     0.37    10.20     0  03:01        0.36
  HS02004480           JUNCTION     0.08     0.38     9.62     0  03:01        0.38
  HS02004479           JUNCTION     0.11     0.42     9.62     0  03:01        0.42
  HS02004478           JUNCTION     0.06     0.28     9.50     0  03:01        0.28
  YS02001745           JUNCTION     0.75     0.95     8.47     0  03:00        0.95
  YS02001748           JUNCTION     1.16     1.46     8.54     0  02:32        1.38
  YS02001751           JUNCTION     1.34     1.59     8.47     0  03:19        1.58
  YS02001754           JUNCTION     1.60     1.85     8.46     0  03:19        1.84
  YS02001762           JUNCTION     1.80     2.05     8.45     0  03:18        2.04
  YS02001765           JUNCTION     1.75     1.99     8.44     0  03:18        1.99
  YS02001767           JUNCTION     1.71     1.95     8.44     0  03:19        1.94
  YS02001770           JUNCTION     1.71     1.93     8.43     0  03:01        1.92
  YS02001774           JUNCTION     1.77     1.99     8.41     0  03:01        1.98
  YS02001779           JUNCTION     1.52     1.68     8.37     0  02:30        1.68
  YS02001882           JUNCTION     0.55     1.63     8.35     0  03:00        1.63
  YS02001884           JUNCTION     0.64     1.73     8.35     0  02:58        1.73
  YS02001759           JUNCTION     1.83     2.09     8.45     0  03:18        2.08
  YS02001887           JUNCTION     0.72     1.81     8.35     0  03:01        1.81
  YS02001890           JUNCTION     0.75     1.81     8.32     0  02:48        1.81
  YS02001898           JUNCTION     0.52     1.56     8.30     0  02:48        1.56
  YS02001901           JUNCTION     0.64     1.68     8.29     0  02:56        1.67
  YS02001904           JUNCTION     0.61     1.64     8.27     0  02:49        1.63
  YS02001907           JUNCTION     0.95     1.96     8.25     0  02:48        1.96
  YS02001910           JUNCTION     0.74     1.79     8.29     0  02:49        1.77
  YS02001915           JUNCTION     0.53     1.60     8.32     0  02:49        1.60
  YS02001918           JUNCTION     0.28     1.30     8.36     0  02:49        1.29
  YS02001619           JUNCTION     1.30     1.49     8.41     0  03:00        1.48
  YS02001629           JUNCTION     1.66     1.85     8.40     0  06:42        1.84
  YS02001641           JUNCTION     1.76     1.94     8.38     0  06:42        1.93
  YS02001644           JUNCTION     1.76     1.92     8.35     0  02:39        1.92
  YS02001652           JUNCTION     1.61     2.03     8.62     0  02:47        1.96
  YS02001655           JUNCTION     1.37     2.02     8.87     0  02:30        1.81
  YS02001920           JUNCTION     0.39     1.38     8.38     0  02:49        1.37
  YS02001923           JUNCTION     0.23     1.14     8.40     0  02:49        1.13
  YS02001926           JUNCTION     0.29     0.95     8.40     0  02:50        0.94
  YS02001929           JUNCTION     0.16     0.71     8.40     0  02:49        0.71
  YS02001658           JUNCTION     1.10     1.94     9.09     0  02:47        1.63
  YS02001661           JUNCTION     0.86     1.92     9.33     0  02:47        1.41
  YS02001664           JUNCTION     0.38     0.57     8.49     0  02:44        0.56
  YS02001622           JUNCTION     1.32     1.50     8.41     0  02:58        1.50
  YS02001633           JUNCTION     1.75     1.96     8.42     0  06:42        1.94
  YS02001649           JUNCTION     1.80     2.05     8.44     0  02:42        2.05
  YS02001757           JUNCTION     1.93     2.19     8.45     0  03:18        2.19
  YS02001895           JUNCTION     0.51     1.57     8.31     0  02:53        1.56
  YS02001625           JUNCTION     1.61     1.78     8.38     0  02:39        1.78
  YS02163301           JUNCTION     1.69     1.89     8.41     0  06:42        1.88
  YS02163601           JUNCTION     1.80     2.01     8.41     0  06:42        1.98
  YS02164001           JUNCTION     1.74     1.94     8.40     0  06:42        1.91
  YS02001647           JUNCTION     1.59     1.81     8.42     0  02:43        1.79
  YSB1154              JUNCTION     0.26     0.57     9.62     0  03:01        0.57
  YSB6556              JUNCTION     0.15     0.45     9.62     0  03:02        0.45
  YSB1174              JUNCTION     0.21     0.52     9.62     0  03:01        0.51
  YSB1171              JUNCTION     0.41     0.72     9.62     0  03:01        0.72
  YS02006553           JUNCTION     0.95     1.97     8.26     0  02:59        1.96
  YS02006561           JUNCTION     0.31     1.08     7.74     0  03:00        1.07
  YS02006556           JUNCTION     0.92     1.93     8.24     0  02:59        1.93
  YS02006558           JUNCTION     0.96     1.98     8.25     0  03:01        1.97
  YS02001783           JUNCTION     0.52     1.46     7.60     0  03:00        1.45
  YS02001784           JUNCTION     0.54     2.07     8.14     0  02:26        1.39
  YS02001786           JUNCTION     0.48     1.81     7.84     0  02:26        1.23
  YS02001788           JUNCTION     0.41     1.57     7.54     0  02:26        1.09
  YS02001790           JUNCTION     0.53     1.82     7.46     0  06:31        1.29
  YS02001791           JUNCTION     0.50     1.69     7.16     0  06:29        1.30
  YS02001793           JUNCTION     0.70     2.66     7.49     0  04:44        1.83
  WSC                  OUTFALL      0.37     0.48     1.15     0  03:07        0.48
  JK-storage           STORAGE      2.81     5.80     6.60     0  02:26        5.80
  CC-storage           STORAGE      1.19     1.45     8.45     0  03:16        1.45
  XR-storage           STORAGE      6.73     7.72     5.72     0  03:00        7.72
  
  
  *******************
  Node Inflow Summary
  *******************
  
  -------------------------------------------------------------------------------------------------
                                  Maximum  Maximum                  Lateral       Total        Flow
                                  Lateral    Total  Time of Max      Inflow      Inflow     Balance
                                   Inflow   Inflow   Occurrence      Volume      Volume       Error
  Node                 Type           LPS      LPS  days hr:min    10^6 ltr    10^6 ltr     Percent
  -------------------------------------------------------------------------------------------------
  WS02001211           JUNCTION      7.35   391.94     0  03:17       0.212        10.4       0.395
  WS02001212           JUNCTION      0.00   396.61     0  03:16           0        10.3       0.241
  WS02001213           JUNCTION      0.00   400.61     0  03:16           0        10.3       0.288
  WS02003069           JUNCTION      0.32  1333.45     0  03:05     0.00922        21.5       0.182
  WS02003072           JUNCTION      0.00  1333.09     0  03:06           0        21.5       0.213
  WS02003073           JUNCTION      1.82  1334.96     0  03:06      0.0524        21.5       0.248
  WS02003060           JUNCTION     16.53  1333.49     0  03:05       0.476        21.6       0.171
  WS02003066           JUNCTION      0.00   938.90     0  03:04           0        10.9       0.050
  WS02003059           JUNCTION      0.00   405.56     0  03:17           0        10.3       0.410
  WS02003067           JUNCTION      0.00   938.45     0  03:04           0        10.9       0.099
  WS02004401           JUNCTION      0.00   939.03     0  03:03           0        11.1       0.224
  WS02004402           JUNCTION      0.00   939.14     0  03:03           0        11.1       0.207
  WS02004403           JUNCTION      0.00   939.25     0  03:03           0        11.1       0.186
  WS02004404           JUNCTION      0.16   939.52     0  03:03     0.00467        11.1       0.137
  WS02004406           JUNCTION      0.00   939.78     0  03:03           0          11       0.332
  WS02004409           JUNCTION      0.00   939.68     0  03:03           0          11       0.190
  WS02004410           JUNCTION      0.00   938.75     0  03:03           0          11       0.210
  WS02004411           JUNCTION      0.00   938.40     0  03:03           0          11       0.212
  WS02004412           JUNCTION      0.00   938.08     0  03:03           0        10.9       0.222
  WS02004413           JUNCTION      0.00   938.25     0  03:04           0        10.9       0.321
  WS02004405           JUNCTION      0.04   939.68     0  03:03      0.0011        11.1       0.202
  WS02006109           JUNCTION      1.23   914.71     0  03:02      0.0354        11.2       0.175
  WS02006110           JUNCTION      0.00   914.78     0  03:02           0        11.2       0.206
  WS02006111           JUNCTION      0.00   915.11     0  03:03           0        11.1       0.045
  WS02006112           JUNCTION     30.67   938.69     0  03:02      0.0853        11.2       0.298
  WS02006113           JUNCTION      0.00   914.84     0  03:02           0        11.2       0.112
  WS02006115           JUNCTION      0.00   938.72     0  03:02           0        11.2       0.227
  WS02006116           JUNCTION      0.00   938.89     0  03:02           0        11.2       0.193
  WS02006230           JUNCTION     10.28   532.77     0  07:10       0.296        8.77       0.187
  WS02006231           JUNCTION      0.00   523.16     0  07:09           0        8.49       0.151
  WS02006232           JUNCTION      0.00   522.05     0  07:12           0         8.5       0.201
  WS02006234           JUNCTION      0.00   522.41     0  07:10           0        8.51       0.137
  WS02006235           JUNCTION      0.00   523.38     0  07:09           0        8.58       0.131
  WS02006238           JUNCTION      0.00   402.52     0  04:49           0        4.69       0.187
  WS02006240           JUNCTION      0.00   402.51     0  04:49           0        4.66       0.356
  WS02006242           JUNCTION      0.00   402.62     0  04:50           0        4.66       0.392
  WS02006243           JUNCTION      0.00   403.13     0  04:49           0        4.66       0.267
  WS02006245           JUNCTION      0.00   402.94     0  04:49           0        4.66       0.235
  WS02006247           JUNCTION      0.00   402.95     0  04:49           0        4.67       0.200
  WS02006248           JUNCTION      0.00   403.00     0  04:49           0        4.67       0.145
  WS02006249           JUNCTION      0.00   409.81     0  03:50           0        4.84       0.230
  WS02006239           JUNCTION      0.00   402.56     0  04:50           0        4.67       0.279
  WS02006251           JUNCTION      0.08   408.78     0  03:50     0.00222        4.89       0.206
  WS02006252           JUNCTION      0.00   400.00     0  04:40           0        4.38       0.007
  WS02006253           JUNCTION      3.75   143.71     0  03:01      0.0103       0.509       0.946
  WS02006256           JUNCTION      0.00   983.00     0  02:40           0        10.8       0.006
  WS02004138           JUNCTION      0.00   380.00     0  00:00           0        10.2       0.067
  WS02004139           JUNCTION      0.32   394.45     0  00:00     0.00924        10.2       0.451
  WS02004407           JUNCTION      0.00   939.86     0  03:03           0          11       0.085
  WS02006228           JUNCTION      0.00   913.36     0  03:02           0        11.2       0.132
  WS02006229           JUNCTION      0.00   918.63     0  03:01           0        11.2       0.126
  WS02006280           JUNCTION      0.00   680.07     0  03:02           0        2.44       0.007
  WS02006284           JUNCTION      0.10   678.93     0  03:02     0.00275        2.44       0.046
  WS02006287           JUNCTION      0.00   677.56     0  03:02           0        2.44       0.031
  WSF200               JUNCTION      0.00   939.03     0  03:04           0        10.9       0.051
  HS02004901           JUNCTION     37.63    37.63     0  03:01       0.103       0.103       1.738
  HS02004881           JUNCTION     14.26   140.54     0  03:01      0.0422       0.464       0.097
  HS02004876           JUNCTION     25.66   127.63     0  03:01      0.0814       0.422       0.127
  HS02004870           JUNCTION     26.26   103.59     0  03:01      0.0799       0.341       0.035
  HS02004862           JUNCTION     25.49    79.37     0  03:01      0.0889       0.261       0.067
  HS02004856           JUNCTION     19.64    55.42     0  03:01      0.0601       0.173       0.843
  HS02004852           JUNCTION      0.00    37.84     0  03:01           0       0.113       0.050
  HS02004848           JUNCTION     55.75    55.75     0  03:01       0.197       0.197       0.028
  HS02004842           JUNCTION      0.00    16.84     0  03:01           0       0.097      15.478
  HS02004837           JUNCTION     50.35    65.70     0  03:01       0.322       0.406       0.202
  HS02004830           JUNCTION      0.15    64.79     0  03:01     0.00432       0.396       0.313
  HS02004824           JUNCTION     65.57   128.45     0  03:01       0.251       0.646       0.085
  HS02004817           JUNCTION      0.60   124.45     0  03:01      0.0173       0.663       2.580
  HS02004807           JUNCTION     48.45   165.79     0  03:01       0.147       0.793       0.551
  HS02004802           JUNCTION      0.00   165.32     0  03:04           0        0.79       0.503
  HS02004799           JUNCTION     38.67   446.04     0  03:01       0.119        1.42       0.191
  HS02004792           JUNCTION    184.82   411.88     0  03:01       0.541         1.3       0.033
  HS02004788           JUNCTION     58.68   233.43     0  03:02        0.22       0.759       0.052
  HS02004785           JUNCTION      0.15   182.19     0  03:01     0.00432       0.541       0.091
  HS02004777           JUNCTION      0.03   185.02     0  03:01    0.000864       0.541       0.970
  HS02004770           JUNCTION    154.22   188.96     0  03:01       0.441       0.542       0.577
  HS02004480           JUNCTION      0.00   517.16     0  03:01           0        1.66       0.068
  HS02004479           JUNCTION      0.00    75.42     0  03:02           0       0.258       0.286
  HS02004478           JUNCTION      0.00   676.99     0  03:02           0        2.44       0.011
  YS02001745           JUNCTION    438.14   438.14     0  03:01        3.03        3.04       0.364
  YS02001748           JUNCTION      0.04   564.45     0  02:32      0.0013        3.03       0.716
  YS02001751           JUNCTION      0.01   442.92     0  03:01    0.000317           3       0.788
  YS02001754           JUNCTION      0.26   443.10     0  03:01     0.00749        2.98       0.840
  YS02001762           JUNCTION      0.00   313.99     0  02:43           0        2.15       0.999
  YS02001765           JUNCTION      0.00   314.90     0  02:43           0        2.16       1.149
  YS02001767           JUNCTION      0.54   314.83     0  02:43      0.0154        2.18       1.679
  YS02001770           JUNCTION    552.50   699.54     0  03:17        3.38        3.97       0.801
  YS02001774           JUNCTION      0.00   699.57     0  03:16           0        2.37       1.078
  YS02001779           JUNCTION      0.01   699.59     0  03:16    0.000144        2.34       0.670
  YS02001882           JUNCTION      0.00    24.99     0  04:18           0        0.02      12.561
  YS02001884           JUNCTION      0.00    31.45     0  04:18           0      0.0588      11.708
  YS02001759           JUNCTION    536.49   620.20     0  02:43        3.12        4.65       0.492
  YS02001887           JUNCTION    679.97   680.61     0  03:01        3.58        3.61       0.236
  YS02001890           JUNCTION      0.00   680.35     0  03:01           0        3.56       0.260
  YS02001898           JUNCTION      0.00   518.39     0  03:00           0        3.46       0.079
  YS02001901           JUNCTION      0.00   518.49     0  03:00           0        3.46       0.204
  YS02001904           JUNCTION      0.00   518.72     0  02:59           0        3.45       0.186
  YS02001907           JUNCTION      0.00  1098.21     0  03:02           0        7.82       0.309
  YS02001910           JUNCTION      0.00   581.25     0  03:02           0        4.38       0.268
  YS02001915           JUNCTION    389.26   580.84     0  03:02        2.53        4.39       0.138
  YS02001918           JUNCTION      0.00   261.90     0  02:50           0        1.86       0.074
  YS02001619           JUNCTION    380.66   380.66     0  03:01        2.52        2.52       0.484
  YS02001629           JUNCTION      0.00   196.75     0  02:39           0        1.61       1.828
  YS02001641           JUNCTION      0.00   413.36     0  02:39           0        4.49       0.480
  YS02001644           JUNCTION    416.76  1527.62     0  03:01        2.92        10.7       0.246
  YS02001652           JUNCTION      0.00   501.67     0  03:01           0        2.63       0.901
  YS02001655           JUNCTION      0.15   501.91     0  03:01     0.00443        2.66       0.905
  YS02001920           JUNCTION      2.87   262.08     0  02:50      0.0827        1.86       0.153
  YS02001923           JUNCTION      0.04   233.41     0  02:50     0.00109        1.78       0.058
  YS02001926           JUNCTION      0.05   197.79     0  03:03      0.0015        1.77       0.180
  YS02001929           JUNCTION    189.18   189.18     0  03:01        1.77        1.77       0.035
  YS02001658           JUNCTION      0.00   589.87     0  02:29           0        2.69       0.797
  YS02001661           JUNCTION      0.00   666.49     0  02:42           0        3.12       0.079
  YS02001664           JUNCTION    492.63   492.63     0  03:01        2.68        3.11       0.189
  YS02001622           JUNCTION      0.00   381.21     0  03:01           0        2.51       1.283
  YS02001633           JUNCTION    423.29   423.29     0  03:01        3.01        4.56       0.713
  YS02001649           JUNCTION      0.00   876.50     0  02:40           0        6.24       0.601
  YS02001757           JUNCTION      0.00  1678.80     0  02:40           0        9.93       0.933
  YS02001895           JUNCTION      0.00   518.56     0  02:59           0        3.47       0.145
  YS02001625           JUNCTION      0.00   408.76     0  03:01           0        2.49       1.580
  YS02163301           JUNCTION      0.00   203.27     0  02:31           0        1.58       1.557
  YS02163601           JUNCTION      0.11   413.35     0  02:39     0.00317        4.51       0.671
  YS02164001           JUNCTION      0.00   413.34     0  02:39           0        4.49       0.456
  YS02001647           JUNCTION      0.00   807.57     0  03:18           0        5.33       0.534
  YSB1154              JUNCTION     44.76    44.76     0  03:01       0.144       0.144       1.017
  YSB6556              JUNCTION      0.00    43.27     0  03:01           0       0.145       0.867
  YSB1174              JUNCTION     38.10    38.10     0  03:01       0.106       0.107       1.221
  YSB1171              JUNCTION      0.00    76.94     0  03:01           0       0.257       2.525
  YS02006553           JUNCTION      0.00   709.79     0  03:46           0         6.8       0.226
  YS02006561           JUNCTION      0.00  1043.42     0  02:49           0          10       0.005
  YS02006556           JUNCTION      0.00   709.85     0  03:46           0         6.8       0.165
  YS02006558           JUNCTION    587.14  1043.70     0  02:49        3.29        10.1       0.052
  YS02001783           JUNCTION      0.00  1044.13     0  02:49           0          10       0.022
  YS02001784           JUNCTION      1.06  1044.19     0  02:49      0.0305        10.1       0.035
  YS02001786           JUNCTION      0.06  1043.76     0  02:49     0.00162        10.1       0.034
  YS02001788           JUNCTION      0.07  1043.67     0  02:49     0.00204        10.1       0.020
  YS02001790           JUNCTION      0.15  1043.38     0  02:49     0.00446        10.1       0.012
  YS02001791           JUNCTION      0.00  1043.82     0  02:49           0        10.1       0.013
  YS02001793           JUNCTION      0.00  1043.67     0  02:49           0        10.1      -0.025
  WSC                  OUTFALL       0.00  1335.12     0  03:07           0        21.4       0.000
  JK-storage           STORAGE       0.00  1043.93     0  02:49           0        10.2     -10.562
  CC-storage           STORAGE       0.00  1678.81     0  02:40           0        8.19       0.787
  XR-storage           STORAGE    1024.87  1024.87     0  03:01        12.9        13.5      -0.006
  
  
  **********************
  Node Surcharge Summary
  **********************
  
  Surcharging occurs when water rises above the top of the highest conduit.
  ---------------------------------------------------------------------
                                               Max. Height   Min. Depth
                                   Hours       Above Crown    Below Rim
  Node                 Type      Surcharged         Meters       Meters
  ---------------------------------------------------------------------
  WS02004401           JUNCTION        0.44          0.232        1.428
  WS02004402           JUNCTION        0.47          0.221        1.519
  WS02004403           JUNCTION        0.48          0.194        1.836
  WS02004404           JUNCTION        0.68          0.238        2.542
  WS02004406           JUNCTION        0.60          0.162        2.288
  WS02004413           JUNCTION        0.18          0.023        2.177
  WS02004405           JUNCTION        0.64          0.214        2.586
  WS02006109           JUNCTION        5.22          0.828        0.992
  WS02006110           JUNCTION        1.45          0.533        1.317
  WS02006111           JUNCTION        0.13          0.073        1.797
  WS02006112           JUNCTION        2.25          0.553        1.127
  WS02006113           JUNCTION        0.15          0.121        1.809
  WS02006115           JUNCTION        0.31          0.205        2.045
  WS02006116           JUNCTION        0.33          0.197        2.093
  WS02006230           JUNCTION        1.12          0.793        0.777
  WS02006231           JUNCTION        1.62          0.805        0.725
  WS02006232           JUNCTION        4.88          0.918        0.562
  WS02006234           JUNCTION        4.07          0.801        0.439
  WS02006235           JUNCTION        4.51          0.820        0.470
  WS02006238           JUNCTION        4.63          0.831        0.599
  WS02006240           JUNCTION        3.96          0.688        0.702
  WS02006242           JUNCTION        4.30          0.692        0.128
  WS02006243           JUNCTION        2.21          0.563        0.207
  WS02006245           JUNCTION        1.74          0.503        0.347
  WS02006247           JUNCTION        1.79          0.485        0.275
  WS02006248           JUNCTION        1.41          0.380        0.000
  WS02006249           JUNCTION        1.52          0.390        0.000
  WS02006239           JUNCTION        4.23          0.743        0.547
  WS02006251           JUNCTION        0.53          0.255        0.925
  WS02006252           JUNCTION        2.09          0.428        0.672
  WS02006253           JUNCTION        0.58          0.495        1.985
  WS02006256           JUNCTION        7.08          2.050        0.000
  WS02006228           JUNCTION        5.19          0.993        1.207
  YS02001748           JUNCTION        5.39          0.385        0.805
  YS02001751           JUNCTION        5.53          0.589        0.611
  YS02001754           JUNCTION        5.74          0.803        0.347
  YS02001762           JUNCTION        5.92          1.052        0.098
  YS02001765           JUNCTION        5.88          0.993        0.107
  YS02001767           JUNCTION        5.86          0.948        0.082
  YS02001770           JUNCTION        5.84          0.904        0.016
  YS02001774           JUNCTION        5.90          0.988        0.062
  YS02001779           JUNCTION        5.73          0.680        0.000
  YS02001882           JUNCTION        1.11          0.635        0.195
  YS02001884           JUNCTION        1.14          0.675        0.195
  YS02001759           JUNCTION        5.94          1.087        0.123
  YS02001887           JUNCTION        1.21          0.764        0.186
  YS02001890           JUNCTION        1.24          0.760        0.000
  YS02001898           JUNCTION        1.06          0.532        0.208
  YS02001901           JUNCTION        1.18          0.678        0.192
  YS02001904           JUNCTION        1.16          0.637        0.213
  YS02001907           JUNCTION        1.90          0.950        0.000
  YS02001910           JUNCTION        1.29          0.785        0.315
  YS02001915           JUNCTION        1.09          0.602        0.398
  YS02001918           JUNCTION        0.88          0.295        0.515
  YS02001619           JUNCTION        5.54          0.486        0.124
  YS02001629           JUNCTION        5.55          0.470        0.000
  YS02001641           JUNCTION        5.89          0.944        0.156
  YS02001644           JUNCTION        5.90          0.920        0.000
  YS02001652           JUNCTION        5.77          0.998        0.132
  YS02001655           JUNCTION        5.56          1.018        0.182
  YS02001920           JUNCTION        0.91          0.376        0.764
  YS02001658           JUNCTION        5.42          0.945        0.355
  YS02001661           JUNCTION        0.11          0.852        0.538
  YS02001622           JUNCTION        5.57          0.503        0.117
  YS02001633           JUNCTION        5.87          0.944        0.116
  YS02001649           JUNCTION        5.92          1.050        0.000
  YS02001757           JUNCTION        6.03          1.191        0.019
  YS02001895           JUNCTION        1.08          0.566        0.184
  YS02001625           JUNCTION        5.81          0.780        0.000
  YS02163301           JUNCTION        5.85          0.894        0.136
  YS02163601           JUNCTION        5.92          1.009        0.071
  YS02164001           JUNCTION        5.89          0.939        0.161
  YS02001647           JUNCTION        5.79          0.806        0.094
  YS02006553           JUNCTION        1.99          0.972        0.218
  YS02006561           JUNCTION        0.90          0.278        0.872
  YS02006556           JUNCTION        1.51          0.893        0.457
  YS02006558           JUNCTION        1.48          0.881        0.519
  YS02001783           JUNCTION        1.42          0.658        0.942
  YS02001784           JUNCTION        1.40          1.269        0.221
  YS02001786           JUNCTION        1.34          1.005        0.425
  YS02001788           JUNCTION        1.16          0.766        0.714
  YS02001790           JUNCTION        2.16          1.018        0.139
  YS02001791           JUNCTION        2.28          0.888        1.032
  YS02001793           JUNCTION        2.60          1.655        0.945
  
  
  *********************
  Node Flooding Summary
  *********************
  
  Flooding refers to all water that overflows a node, whether it ponds or not.
  --------------------------------------------------------------------------
                                                             Total   Maximum
                                 Maximum   Time of Max       Flood    Ponded
                        Hours       Rate    Occurrence      Volume     Depth
  Node                 Flooded       LPS   days hr:min    10^6 ltr    Meters
  --------------------------------------------------------------------------
  WS02006248              0.08     15.20      0  03:03       0.002     0.000
  WS02006249              0.51    226.24      0  03:00       0.157     0.000
  WS02006256              4.23    831.03      0  03:02       6.821     0.000
  YS02001779              2.68    699.59      0  03:16       2.321     0.000
  YS02001890              0.34    162.99      0  03:01       0.085     0.000
  YS02001907              0.75    687.72      0  03:01       1.007     0.000
  YS02001629              0.01      1.82      0  06:42       0.000     0.000
  YS02001644              3.91   1527.06      0  03:01       8.645     0.000
  YS02001649              0.02     28.68      0  02:47       0.001     0.000
  YS02001625              1.41    408.69      0  03:01       0.856     0.000
  JK-storage              0.74    446.99      0  02:27       0.649     0.000
  XR-storage              3.43    644.66      0  03:01       2.558     0.000
  
  
  **********************
  Storage Volume Summary
  **********************
  
  --------------------------------------------------------------------------------------------------
                         Average     Avg  Evap Exfil       Maximum     Max    Time of Max    Maximum
                          Volume    Pcnt  Pcnt  Pcnt        Volume    Pcnt     Occurrence    Outflow
  Storage Unit           1000 m3    Full  Loss  Loss       1000 m3    Full    days hr:min        LPS
  --------------------------------------------------------------------------------------------------
  JK-storage               0.141      48     0     0         0.291     100       0  02:26     983.00
  CC-storage               3.308      21     0     0         4.046      26       0  03:16     400.00
  XR-storage               0.807      87     0     0         0.926     100       0  03:00     380.00
  
  
  ***********************
  Outfall Loading Summary
  ***********************
  
  ---------------------------------------------------------------------------------------------------------------------------------
                         Flow       Avg       Max       Total         Total         Total         Total         Total         Total
                         Freq      Flow      Flow      Volume           COD            SS            TN            TP         NH4-N
  Outfall Node           Pcnt       LPS       LPS    10^6 ltr            kg            kg            kg            kg            kg
  ---------------------------------------------------------------------------------------------------------------------------------
  WSC                  100.00    841.81   1335.12      21.445      2525.054      4369.645       155.348        18.144        93.660
  ---------------------------------------------------------------------------------------------------------------------------------
  System               100.00    841.81   1335.12      21.445      2525.054      4369.645       155.348        18.144        93.660
  
  
  ********************
  Link Flow Summary
  ********************
  
  -----------------------------------------------------------------------------
                                 Maximum  Time of Max   Maximum    Max/    Max/
                                  |Flow|   Occurrence   |Veloc|    Full    Full
  Link                 Type          LPS  days hr:min     m/sec    Flow   Depth
  -----------------------------------------------------------------------------
  WS02003066WSF200     CONDUIT    939.03     0  03:04      3.00    0.16    0.32
  WS02006287WS02006284 CONDUIT    678.83     0  03:02      2.38    0.31    0.39
  WS02006284WS02006280 CONDUIT    680.07     0  03:02      2.62    0.28    0.37
  WS02006280WS02006229 CONDUIT    680.15     0  03:02      3.86    0.15    0.50
  WS02006229WS02006228 CONDUIT    913.36     0  03:02      1.82    3.03    1.00
  WS02006256WS02006235 CONDUIT    259.68     0  01:52      3.67    2.75    1.00
  WS02006253WS02006251 CONDUIT    144.35     0  03:01      0.57    0.43    1.00
  WS02006252WS02006251 CONDUIT    401.17     0  06:19      3.19    1.47    1.00
  WS02006251WS02006249 CONDUIT    409.81     0  03:50      1.09    1.18    1.00
  WS02006249WS02006248 CONDUIT    403.00     0  04:49      1.13    2.21    1.00
  WS02006248WS02006247 CONDUIT    402.95     0  04:49      1.10    0.88    1.00
  WS02006247WS02006245 CONDUIT    402.94     0  04:49      1.07    3.19    1.00
  WS02006245WS02006243 CONDUIT    403.13     0  04:49      1.07    1.19    1.00
  WS02006243WS02006242 CONDUIT    402.62     0  04:50      1.05    0.86    1.00
  WS02006242WS02006240 CONDUIT    402.51     0  04:49      1.05    1.60    1.00
  WS02006240WS02006239 CONDUIT    402.56     0  04:50      1.05    1.27    1.00
  WS02006239WS02006238 CONDUIT    402.52     0  04:49      1.05    1.29    1.00
  WS02006238WS02006235 CONDUIT    404.24     0  04:49      1.05    0.90    1.00
  WS02006235WS02006234 CONDUIT    522.41     0  07:10      1.36    5.51    1.00
  WS02006234WS02006232 CONDUIT    522.05     0  07:12      1.36    1.06    1.00
  WS02006232WS02006231 CONDUIT    523.16     0  07:09      1.36    1.10    1.00
  WS02006231WS02006230 CONDUIT    522.49     0  07:10      1.36    7.93    1.00
  WS02006230WS02006229 CONDUIT    532.09     0  07:13      1.38   11.84    1.00
  WS02006228WS02006109 CONDUIT    913.48     0  03:02      1.82    3.99    1.00
  WS02006116WS02004401 CONDUIT    939.03     0  03:03      1.20    1.29    1.00
  WS02006115WS02006116 CONDUIT    938.89     0  03:02      1.20    1.20    1.00
  WS02006113WS02006111 CONDUIT    915.11     0  03:03      2.60    1.10    1.00
  WS02006112WS02006115 CONDUIT    938.72     0  03:02      1.20    0.55    1.00
  WS02006111WS02006112 CONDUIT    915.55     0  03:03      1.82    0.44    1.00
  WS02006110WS02006113 CONDUIT    914.84     0  03:02      1.82    0.83    1.00
  WS02006109WS02006110 CONDUIT    914.78     0  03:02      1.82    1.76    1.00
  WS02004411WS02004412 CONDUIT    938.08     0  03:03      1.24    1.33    0.92
  WS02004401WS02004402 CONDUIT    939.14     0  03:03      1.20    1.13    1.00
  WS02004413WS02003067 CONDUIT    938.45     0  03:04      1.55    0.40    0.72
  WS02004412WS02004413 CONDUIT    938.25     0  03:04      1.22    0.63    0.95
  WS02004410WS02004411 CONDUIT    938.40     0  03:03      1.23    1.28    0.94
  WS02004409WS02004410 CONDUIT    938.75     0  03:03      1.22    1.21    0.95
  WS02004407WS02004409 CONDUIT    939.68     0  03:03      1.67    0.33    0.68
  WS02004406WS02004407 CONDUIT    939.86     0  03:03      1.60    0.42    0.70
  WS02004405WS02004406 CONDUIT    939.78     0  03:03      1.20    1.85    1.00
  WS02004404WS02004405 CONDUIT    939.65     0  03:03      1.20    9.21    1.00
  WS02004403WS02004404 CONDUIT    939.36     0  03:03      1.20    0.68    1.00
  WS02004402WS02004403 CONDUIT    939.25     0  03:03      1.20    1.35    1.00
  WS02004139WS02001211 CONDUIT    384.59     0  03:17      0.90    0.49    0.64
  WS02004138WS02004139 CONDUIT    394.13     0  00:00      3.62    0.08    0.47
  WS02003067WS02003066 CONDUIT    938.90     0  03:04      1.65    0.30    0.50
  WS02001213WS02003059 CONDUIT    405.56     0  03:17      0.89    0.67    0.87
  WS02001212WS02001213 CONDUIT    400.61     0  03:16      1.32    0.62    0.56
  WS02001211WS02001212 CONDUIT    396.61     0  03:16      0.78    0.30    0.71
  WS02003072WS02003073 CONDUIT   1333.14     0  03:06      1.96    2.88    0.58
  WS02003069WS02003072 CONDUIT   1333.09     0  03:06      1.82    0.64    0.62
  WS02003060WS02003069 CONDUIT   1333.13     0  03:05      2.03    0.52    0.56
  WS02003059WS02003060 CONDUIT    412.11     0  03:16      0.95    0.27    0.77
  HS02004901HS02004770 CONDUIT     37.24     0  03:01      0.10    0.14    0.53
  HS02004876HS02004881 CONDUIT    127.62     0  03:01      1.21    1.36    0.15
  HS02004870HS02004876 CONDUIT    103.09     0  03:01      0.82    0.07    0.18
  HS02004842HS02004848 CONDUIT     16.84     0  03:01      0.07    0.01    0.33
  HS02004837HS02004842 CONDUIT     17.91     0  03:03      0.42    0.01    0.35
  HS02004830HS02004837 CONDUIT     64.64     0  03:01      0.67    0.06    0.14
  HS02004824HS02004830 CONDUIT     64.12     0  03:02      0.62    0.08    0.16
  HS02004817HS02004824 CONDUIT    123.85     0  03:01      0.31    0.06    0.58
  HS02004770HS02004777 CONDUIT    184.99     0  03:01      0.49    0.34    0.54
  HS02004799HS02004480 CONDUIT    444.29     0  03:01      1.07    0.56    0.60
  HS02004792HS02004799 CONDUIT    408.42     0  03:01      1.20    0.25    0.49
  HS02004788HS02004792 CONDUIT    232.95     0  03:02      1.28    0.15    0.26
  HS02004785HS02004788 CONDUIT    181.77     0  03:02      0.91    1.37    0.29
  HS02004777HS02004785 CONDUIT    182.04     0  03:01      0.57    0.22    0.45
  HS02004480HS02004478 CONDUIT    517.28     0  03:01      1.55    2.18    0.48
  HS02004479HS02004480 CONDUIT     77.28     0  03:02      0.30    0.07    0.57
  HS02004862HS02004870 CONDUIT     79.02     0  03:01      0.80    0.09    0.14
  HS02004848HS02004852 CONDUIT     37.84     0  03:01      0.53    0.04    0.10
  HS02004856HS02004862 CONDUIT     54.76     0  03:01      0.59    0.05    0.13
  HS02004852HS02004856 CONDUIT     37.76     0  03:02      0.34    0.04    0.16
  HS02004802HS02004478 CONDUIT    170.15     0  03:04      0.54    0.15    0.48
  HS02004478WS02006287 CONDUIT    677.56     0  03:02      2.11    0.19    0.36
  HS02004817HS02004807 CONDUIT    128.12     0  03:04      0.25    0.08    0.75
  HS02004807HS02004802 CONDUIT    165.32     0  03:04      0.46    0.32    0.53
  YS02001759YS02001757 CONDUIT    619.39     0  02:43      0.79    0.44    1.00
  YS02001762YS02001759 CONDUIT    313.37     0  02:43      0.40    0.36    1.00
  YS02001765YS02001762 CONDUIT    313.99     0  02:43      0.40    0.29    1.00
  YS02001770YS02001767 CONDUIT    314.29     0  02:43      0.40    1.24    1.00
  YS02001774YS02001770 CONDUIT    699.57     0  03:16      0.89    0.45    1.00
  YS02001779YS02001774 CONDUIT    699.59     0  03:16      0.89    0.35    1.00
  YS02001649YS02001757 CONDUIT    876.38     0  02:40      1.12    0.53    1.00
  YS02001767YS02001765 CONDUIT    314.90     0  02:43      0.40    0.40    1.00
  YS02006561YS02001783 CONDUIT   1044.13     0  02:49      2.15    0.54    1.00
  YS02001783YS02001784 CONDUIT   1043.13     0  02:49      2.08    1.44    1.00
  YS02001784YS02001785 CONDUIT   1043.70     0  02:49      2.08    2.43    1.00
  YS02001788YS02001790 CONDUIT   1043.22     0  02:49      2.44    0.77    1.00
  YS02001790YS02001791 CONDUIT   1043.82     0  02:49      2.90    1.14    1.00
  YS02001791YS02001793 CONDUIT   1043.67     0  02:49      5.75    0.45    1.00
  YS02001910YS02001907 CONDUIT    581.54     0  03:02      0.74    0.33    1.00
  YS02001786YS02001788 CONDUIT   1043.60     0  02:49      2.31    2.01    1.00
  YS02001915YS02001910 CONDUIT    581.25     0  03:02      0.74    0.29    1.00
  YS02001918YS02001915 CONDUIT    262.49     0  02:50      0.44    0.14    1.00
  YS02001923YS02001920 CONDUIT    259.21     0  02:50      0.75    0.12    1.00
  YS02001926YS02001923 CONDUIT    233.37     0  02:50      0.86    0.33    0.93
  YS02001929YS02001926 CONDUIT    197.74     0  03:03      0.92    0.09    0.83
  YS02001920YS02001918 CONDUIT    261.90     0  02:50      0.72    0.25    1.00
  YS02001629YS02163301 CONDUIT    203.27     0  02:31      0.26    0.25    1.00
  YS02001619YS02001622 CONDUIT    381.21     0  03:01      0.59    0.56    1.00
  YS02001622YS02001625 CONDUIT    381.04     0  03:01      0.49    0.20    1.00
  YS02001625YS02001629 CONDUIT    196.75     0  02:39      0.25    0.09    1.00
  YS02163301YS02001633 CONDUIT    204.97     0  02:31      0.26    0.19    1.00
  YS02163601YS02164001 CONDUIT    413.34     0  02:39      0.53    0.37    1.00
  YS02164001YS02001641 CONDUIT    413.36     0  02:39      0.53    0.56    1.00
  YS02001641YS02001644 CONDUIT    413.37     0  02:39      0.53    1.34    1.00
  YS02001647YS02001649 CONDUIT    807.57     0  03:18      1.03    0.43    1.00
  YS02006553YS02006556 CONDUIT    709.85     0  03:46      0.90    0.61    1.00
  YS02006556YS02006558 CONDUIT    709.97     0  03:46      0.90    0.56    1.00
  YSB6556YSB1171       CONDUIT     42.81     0  03:02      0.13    0.04    0.82
  YS02001907YS02006553 CONDUIT    709.79     0  03:46      0.79    0.83    1.00
  YS02006558YS02006561 CONDUIT   1043.42     0  02:49      3.69    2.31    1.00
  YS02001633YS02163601 CONDUIT    413.24     0  02:39      0.53    0.43    1.00
  YS02001644YS02001647 CONDUIT    807.64     0  03:18      1.03    0.47    1.00
  YS02001745YS02001748 CONDUIT    564.40     0  02:32      1.45    0.22    0.97
  YS02001748YS02001751 CONDUIT    442.91     0  03:01      1.03    0.22    1.00
  YS02001751YS02001754 CONDUIT    442.84     0  03:01      0.88    0.21    1.00
  YS02001754YS02001757 CONDUIT    442.52     0  03:01      0.56    0.18    1.00
  YS02001882YS02001884 CONDUIT     25.26     0  04:18      0.12    0.03    1.00
  YS02001884YS02001887 CONDUIT     31.45     0  04:18      0.08    0.04    1.00
  YS02001890YS02001895 CONDUIT    518.56     0  02:59      0.66    0.24    1.00
  YS02001895YS02001898 CONDUIT    518.39     0  03:00      0.66    0.90    1.00
  YS02001898YS02001901 CONDUIT    518.49     0  03:00      0.66    0.33    1.00
  YS02001901YS02001904 CONDUIT    518.72     0  02:59      0.66    0.80    1.00
  YS02001904YS02001907 CONDUIT    519.60     0  02:59      0.66    0.18    1.00
  YS02001887YS02001890 CONDUIT    680.35     0  03:01      0.87    1.16    1.00
  YS02001652YS02001649 CONDUIT    501.77     0  03:01      0.64    0.25    1.00
  YS02001655YS02001652 CONDUIT    501.67     0  03:01      0.94    0.24    1.00
  YS02001658YS02001655 CONDUIT    501.75     0  03:01      1.18    0.21    1.00
  YS02001661YS02001658 CONDUIT    589.87     0  02:29      1.52    0.23    1.00
  YS02001664YS02001661 CONDUIT    666.49     0  02:42      1.43    0.21    0.77
  YSB1154YSB6556       CONDUIT     43.27     0  03:01      0.18    0.08    0.73
  YSB1174YSB1171       CONDUIT     36.65     0  03:01      0.11    0.06    0.85
  YSB1171HS02004479    CONDUIT     75.42     0  03:02      0.54    0.05    0.68
  HS02004881HS02006253 CONDUIT    140.46     0  03:01      2.17    0.03    0.54
  YS02001793JiankangQianchi CONDUIT   1043.93     0  02:49     16.36    0.08    1.00
  YS02001757CaochengTiaoxuchi CONDUIT   1678.81     0  02:40      2.17    0.74    1.00
  WSF200WS02003060     CONDUIT    939.33     0  03:04      1.93    0.21    0.45
  1                    CONDUIT   1335.12     0  03:07      3.59    0.46    0.48
  CC-Pump-1            PUMP       200.00     0  03:30              1.00
  CC-Pump-2            PUMP       200.00     0  04:40              1.00
  JK-Pump-1            PUMP       300.00     0  02:01              1.00
  JK-Pump-2            PUMP       683.00     0  02:40              1.00
  XR-Pump-1            PUMP        95.00     0  00:00              1.00
  XR-Pump-2            PUMP        95.00     0  00:00              1.00
  XR-Pump-3            PUMP        95.00     0  00:00              1.00
  XR-Pump-4            PUMP        95.00     0  00:00              1.00
  
  
  ***************************
  Flow Classification Summary
  ***************************
  
  -------------------------------------------------------------------------------------
                      Adjusted    ---------- Fraction of Time in Flow Class ---------- 
                       /Actual         Up    Down  Sub   Sup   Up    Down  Norm  Inlet 
  Conduit               Length    Dry  Dry   Dry   Crit  Crit  Crit  Crit  Ltd   Ctrl  
  -------------------------------------------------------------------------------------
  WS02003066WSF200        1.00   0.00  0.02  0.00  0.00  0.97  0.00  0.00  0.60  0.00
  WS02006287WS02006284    1.00   0.03  0.01  0.00  0.67  0.29  0.00  0.00  0.66  0.00
  WS02006284WS02006280    1.00   0.03  0.00  0.00  0.00  0.00  0.00  0.97  0.00  0.00
  WS02006280WS02006229    1.00   0.03  0.00  0.00  0.01  0.02  0.00  0.94  0.01  0.00
  WS02006229WS02006228    1.00   0.00  0.00  0.00  1.00  0.00  0.00  0.00  0.00  0.00
  WS02006256WS02006235    1.00   0.00  0.00  0.00  1.00  0.00  0.00  0.00  0.00  0.00
  WS02006253WS02006251    1.00   0.01  0.02  0.00  0.97  0.00  0.00  0.00  0.00  0.00
  WS02006252WS02006251    1.00   0.15  0.00  0.00  0.06  0.00  0.79  0.00  0.00  0.00
  WS02006251WS02006249    1.00   0.00  0.00  0.00  1.00  0.00  0.00  0.00  0.22  0.00
  WS02006249WS02006248    1.00   0.00  0.00  0.00  0.93  0.00  0.07  0.00  0.00  0.00
  WS02006248WS02006247    1.00   0.00  0.00  0.00  0.99  0.00  0.00  0.01  0.13  0.00
  WS02006247WS02006245    1.00   0.00  0.00  0.00  0.99  0.00  0.00  0.01  0.00  0.00
  WS02006245WS02006243    1.00   0.01  0.00  0.00  0.97  0.00  0.00  0.03  0.01  0.00
  WS02006243WS02006242    1.00   0.01  0.00  0.00  0.99  0.00  0.00  0.00  0.16  0.00
  WS02006242WS02006240    1.00   0.01  0.00  0.00  0.99  0.00  0.00  0.00  0.00  0.00
  WS02006240WS02006239    1.00   0.01  0.00  0.00  0.96  0.00  0.00  0.03  0.01  0.00
  WS02006239WS02006238    1.00   0.00  0.00  0.00  1.00  0.00  0.00  0.00  0.10  0.00
  WS02006238WS02006235    1.00   0.00  0.00  0.00  1.00  0.00  0.00  0.00  0.00  0.00
  WS02006235WS02006234    1.00   0.00  0.00  0.00  0.97  0.00  0.03  0.00  0.00  0.00
  WS02006234WS02006232    1.00   0.00  0.00  0.00  0.99  0.00  0.00  0.00  0.06  0.00
  WS02006232WS02006231    1.00   0.00  0.00  0.00  0.99  0.00  0.00  0.00  0.00  0.00
  WS02006231WS02006230    1.00   0.01  0.00  0.00  0.91  0.00  0.09  0.00  0.00  0.00
  WS02006230WS02006229    1.00   0.00  0.00  0.00  0.99  0.00  0.00  0.01  0.00  0.00
  WS02006228WS02006109    1.00   0.00  0.00  0.00  1.00  0.00  0.00  0.00  0.00  0.00
  WS02006116WS02004401    1.00   0.01  0.00  0.00  0.99  0.00  0.00  0.00  0.00  0.00
  WS02006115WS02006116    1.00   0.01  0.00  0.00  0.99  0.00  0.00  0.00  0.00  0.00
  WS02006113WS02006111    1.00   0.01  0.00  0.00  0.03  0.96  0.00  0.00  0.13  0.00
  WS02006112WS02006115    1.00   0.01  0.00  0.00  0.99  0.00  0.00  0.00  0.00  0.00
  WS02006111WS02006112    1.00   0.01  0.00  0.00  0.99  0.00  0.00  0.00  0.88  0.00
  WS02006110WS02006113    1.00   0.00  0.01  0.00  0.99  0.00  0.00  0.00  0.00  0.00
  WS02006109WS02006110    1.00   0.00  0.00  0.00  1.00  0.00  0.00  0.00  0.00  0.00
  WS02004411WS02004412    1.00   0.02  0.00  0.00  0.98  0.00  0.00  0.00  0.00  0.00
  WS02004401WS02004402    1.00   0.01  0.00  0.00  0.99  0.00  0.00  0.00  0.00  0.00
  WS02004413WS02003067    1.00   0.02  0.00  0.00  0.00  0.00  0.98  0.00  0.00  0.00
  WS02004412WS02004413    1.00   0.02  0.00  0.00  0.98  0.00  0.00  0.00  0.00  0.00
  WS02004410WS02004411    1.00   0.02  0.00  0.00  0.98  0.00  0.00  0.00  0.00  0.00
  WS02004409WS02004410    1.00   0.02  0.00  0.00  0.98  0.00  0.00  0.00  0.00  0.00
  WS02004407WS02004409    1.00   0.02  0.00  0.00  0.98  0.00  0.00  0.00  0.93  0.00
  WS02004406WS02004407    1.00   0.00  0.02  0.00  0.98  0.00  0.00  0.00  0.00  0.00
  WS02004405WS02004406    1.00   0.00  0.00  0.00  1.00  0.00  0.00  0.00  0.02  0.00
  WS02004404WS02004405    1.00   0.00  0.00  0.00  1.00  0.00  0.00  0.00  0.00  0.00
  WS02004403WS02004404    1.00   0.00  0.01  0.00  0.99  0.00  0.00  0.00  0.00  0.00
  WS02004402WS02004403    1.00   0.01  0.00  0.00  0.99  0.00  0.00  0.00  0.00  0.00
  WS02004139WS02001211    1.00   0.00  0.00  0.00  1.00  0.00  0.00  0.00  0.00  0.00
  WS02004138WS02004139    1.00   0.00  0.00  0.00  1.00  0.00  0.00  0.00  1.00  0.00
  WS02003067WS02003066    1.00   0.02  0.00  0.00  0.98  0.00  0.00  0.00  0.00  0.00
  WS02001213WS02003059    1.00   0.00  0.00  0.00  1.00  0.00  0.00  0.00  0.00  0.00
  WS02001212WS02001213    1.00   0.00  0.00  0.00  0.93  0.00  0.07  0.00  0.00  0.00
  WS02001211WS02001212    1.00   0.00  0.00  0.00  1.00  0.00  0.00  0.00  0.00  0.00
  WS02003072WS02003073    1.00   0.00  0.00  0.00  0.00  0.00  0.00  1.00  0.00  0.00
  WS02003069WS02003072    1.00   0.00  0.00  0.00  1.00  0.00  0.00  0.00  0.13  0.00
  WS02003060WS02003069    1.00   0.00  0.00  0.00  1.00  0.00  0.00  0.00  0.12  0.00
  WS02003059WS02003060    1.00   0.00  0.00  0.00  1.00  0.00  0.00  0.00  0.00  0.00
  HS02004901HS02004770    1.00   0.03  0.00  0.00  0.97  0.00  0.00  0.00  0.00  0.00
  HS02004876HS02004881    1.00   0.00  0.00  0.00  0.93  0.07  0.00  0.00  0.00  0.00
  HS02004870HS02004876    1.00   0.00  0.00  0.00  1.00  0.00  0.00  0.00  0.95  0.00
  HS02004842HS02004848    1.00   0.00  0.03  0.00  0.97  0.00  0.00  0.00  0.55  0.00
  HS02004837HS02004842    1.00   0.00  0.00  0.00  1.00  0.00  0.00  0.00  0.11  0.00
  HS02004830HS02004837    1.00   0.00  0.00  0.00  1.00  0.00  0.00  0.00  0.99  0.00
  HS02004824HS02004830    1.00   0.00  0.00  0.00  1.00  0.00  0.00  0.00  0.01  0.00
  HS02004817HS02004824    1.00   0.00  0.00  0.00  1.00  0.00  0.00  0.00  0.97  0.00
  HS02004770HS02004777    1.00   0.00  0.03  0.00  0.97  0.00  0.00  0.00  0.03  0.00
  HS02004799HS02004480    1.00   0.00  0.01  0.00  0.96  0.00  0.03  0.00  0.00  0.00
  HS02004792HS02004799    1.00   0.00  0.00  0.00  1.00  0.00  0.00  0.00  0.98  0.00
  HS02004788HS02004792    1.00   0.00  0.00  0.00  1.00  0.00  0.00  0.00  0.98  0.00
  HS02004785HS02004788    1.00   0.00  0.00  0.00  1.00  0.00  0.00  0.00  0.00  0.00
  HS02004777HS02004785    1.00   0.00  0.00  0.00  1.00  0.00  0.00  0.00  0.12  0.00
  HS02004480HS02004478    1.00   0.03  0.00  0.00  0.74  0.00  0.00  0.23  0.00  0.00
  HS02004479HS02004480    1.00   0.01  0.00  0.00  0.99  0.00  0.00  0.00  0.11  0.00
  HS02004862HS02004870    1.00   0.00  0.00  0.00  1.00  0.00  0.00  0.00  0.03  0.00
  HS02004848HS02004852    1.00   0.03  0.00  0.00  0.97  0.00  0.00  0.00  0.65  0.00
  HS02004856HS02004862    1.00   0.00  0.04  0.00  0.96  0.00  0.00  0.00  0.83  0.00
  HS02004852HS02004856    1.00   0.03  0.00  0.00  0.97  0.00  0.00  0.00  0.81  0.00
  HS02004802HS02004478    1.00   0.03  0.00  0.00  0.97  0.00  0.00  0.00  0.02  0.00
  HS02004478WS02006287    1.00   0.04  0.00  0.00  0.81  0.15  0.00  0.00  0.66  0.00
  HS02004817HS02004807    1.00   0.00  0.03  0.00  0.97  0.00  0.00  0.00  0.01  0.00
  HS02004807HS02004802    1.00   0.03  0.00  0.00  0.97  0.00  0.00  0.00  0.00  0.00
  YS02001759YS02001757    1.00   0.00  0.00  0.00  1.00  0.00  0.00  0.00  0.16  0.00
  YS02001762YS02001759    1.00   0.00  0.00  0.00  1.00  0.00  0.00  0.00  0.03  0.00
  YS02001765YS02001762    1.00   0.00  0.00  0.00  1.00  0.00  0.00  0.00  0.14  0.00
  YS02001770YS02001767    1.00   0.00  0.00  0.00  1.00  0.00  0.00  0.00  0.00  0.00
  YS02001774YS02001770    1.00   0.00  0.03  0.00  0.97  0.00  0.00  0.00  0.03  0.00
  YS02001779YS02001774    1.00   0.00  0.00  0.00  1.00  0.00  0.00  0.00  0.18  0.00
  YS02001649YS02001757    1.00   0.00  0.00  0.00  1.00  0.00  0.00  0.00  0.16  0.00
  YS02001767YS02001765    1.00   0.00  0.00  0.00  1.00  0.00  0.00  0.00  0.00  0.00
  YS02006561YS02001783    1.00   0.04  0.00  0.00  0.34  0.61  0.00  0.00  0.47  0.00
  YS02001783YS02001784    1.00   0.00  0.04  0.00  0.96  0.00  0.00  0.00  0.00  0.00
  YS02001784YS02001785    1.00   0.00  0.00  0.00  1.00  0.00  0.00  0.00  0.17  0.00
  YS02001788YS02001790    1.00   0.00  0.00  0.00  0.40  0.60  0.00  0.00  0.38  0.00
  YS02001790YS02001791    1.00   0.00  0.00  0.00  0.38  0.62  0.00  0.00  0.44  0.00
  YS02001791YS02001793    1.00   0.00  0.00  0.00  0.41  0.59  0.00  0.00  0.02  0.00
  YS02001910YS02001907    1.00   0.00  0.00  0.00  0.99  0.00  0.00  0.01  0.12  0.00
  YS02001786YS02001788    1.00   0.00  0.00  0.00  0.38  0.62  0.00  0.00  0.00  0.00
  YS02001915YS02001910    1.00   0.00  0.00  0.00  0.99  0.01  0.00  0.00  0.16  0.00
  YS02001918YS02001915    1.00   0.00  0.00  0.00  1.00  0.00  0.00  0.00  0.55  0.00
  YS02001923YS02001920    1.00   0.00  0.00  0.00  1.00  0.00  0.00  0.00  0.82  0.00
  YS02001926YS02001923    1.00   0.00  0.02  0.00  0.15  0.00  0.83  0.00  0.00  0.00
  YS02001929YS02001926    1.00   0.00  0.03  0.00  0.97  0.00  0.00  0.00  0.75  0.00
  YS02001920YS02001918    1.00   0.00  0.00  0.00  1.00  0.00  0.00  0.00  0.00  0.00
  YS02001629YS02163301    1.00   0.04  0.00  0.00  0.96  0.00  0.00  0.00  0.00  0.00
  YS02001619YS02001622    1.00   0.03  0.00  0.00  0.97  0.00  0.00  0.00  0.00  0.00
  YS02001622YS02001625    1.00   0.03  0.00  0.00  0.97  0.00  0.00  0.00  0.05  0.00
  YS02001625YS02001629    1.00   0.03  0.01  0.00  0.94  0.00  0.01  0.00  0.00  0.00
  YS02163301YS02001633    1.00   0.00  0.04  0.00  0.96  0.00  0.00  0.00  0.00  0.00
  YS02163601YS02164001    1.00   0.00  0.02  0.00  0.98  0.00  0.00  0.00  0.00  0.00
  YS02164001YS02001641    1.00   0.00  0.02  0.00  0.98  0.00  0.00  0.00  0.06  0.00
  YS02001641YS02001644    1.00   0.00  0.00  0.00  1.00  0.00  0.00  0.00  0.00  0.00
  YS02001647YS02001649    1.00   0.00  0.04  0.00  0.96  0.00  0.00  0.00  0.01  0.00
  YS02006553YS02006556    1.00   0.00  0.00  0.00  1.00  0.00  0.00  0.00  0.03  0.00
  YS02006556YS02006558    1.00   0.00  0.00  0.00  1.00  0.00  0.00  0.00  0.00  0.00
  YSB6556YSB1171          1.00   0.01  0.02  0.00  0.97  0.00  0.00  0.00  0.00  0.00
  YS02001907YS02006553    1.00   0.00  0.00  0.00  1.00  0.00  0.00  0.00  0.00  0.00
  YS02006558YS02006561    1.00   0.04  0.00  0.00  0.15  0.80  0.00  0.00  0.47  0.00
  YS02001633YS02163601    1.00   0.00  0.00  0.00  1.00  0.00  0.00  0.00  0.15  0.00
  YS02001644YS02001647    1.00   0.00  0.04  0.00  0.96  0.00  0.00  0.00  0.00  0.00
  YS02001745YS02001748    1.00   0.00  0.00  0.00  0.92  0.00  0.00  0.07  0.04  0.00
  YS02001748YS02001751    1.00   0.00  0.00  0.00  0.97  0.03  0.00  0.00  0.15  0.00
  YS02001751YS02001754    1.00   0.00  0.00  0.00  0.95  0.00  0.00  0.05  0.02  0.00
  YS02001754YS02001757    1.00   0.00  0.00  0.00  1.00  0.00  0.00  0.00  0.18  0.00
  YS02001882YS02001884    1.00   0.04  0.00  0.00  0.96  0.00  0.00  0.00  0.00  0.00
  YS02001884YS02001887    1.00   0.02  0.01  0.00  0.97  0.00  0.00  0.00  0.00  0.00
  YS02001890YS02001895    1.00   0.00  0.04  0.00  0.96  0.00  0.00  0.00  0.00  0.00
  YS02001895YS02001898    1.00   0.04  0.00  0.00  0.95  0.00  0.01  0.00  0.00  0.00
  YS02001898YS02001901    1.00   0.04  0.00  0.00  0.96  0.00  0.00  0.00  0.01  0.00
  YS02001901YS02001904    1.00   0.04  0.00  0.00  0.96  0.00  0.00  0.00  0.00  0.00
  YS02001904YS02001907    1.00   0.00  0.04  0.00  0.96  0.00  0.00  0.00  0.00  0.00
  YS02001887YS02001890    1.00   0.00  0.00  0.00  0.99  0.00  0.01  0.00  0.00  0.00
  YS02001652YS02001649    1.00   0.00  0.00  0.00  1.00  0.00  0.00  0.00  0.16  0.00
  YS02001655YS02001652    1.00   0.00  0.00  0.00  0.95  0.00  0.00  0.05  0.02  0.00
  YS02001658YS02001655    1.00   0.00  0.03  0.00  0.94  0.02  0.00  0.00  0.09  0.00
  YS02001661YS02001658    1.00   0.03  0.00  0.00  0.92  0.05  0.00  0.00  0.11  0.00
  YS02001664YS02001661    1.00   0.03  0.00  0.00  0.93  0.04  0.00  0.00  0.19  0.00
  YSB1154YSB6556          1.00   0.03  0.00  0.00  0.97  0.00  0.00  0.00  0.01  0.00
  YSB1174YSB1171          1.00   0.01  0.01  0.00  0.98  0.00  0.00  0.00  0.00  0.00
  YSB1171HS02004479       1.00   0.01  0.00  0.00  0.99  0.00  0.00  0.00  0.10  0.00
  HS02004881HS02006253    1.00   0.01  0.00  0.00  0.83  0.02  0.00  0.13  0.65  0.00
  YS02001793JiankangQianchi    1.00   0.00  0.00  0.00  0.65  0.35  0.00  0.00  0.38  0.00
  YS02001757CaochengTiaoxuchi    1.00   0.00  0.06  0.00  0.94  0.00  0.00  0.00  0.00  0.00
  WSF200WS02003060        1.00   0.00  0.00  0.00  1.00  0.00  0.00  0.00  0.25  0.00
  1                       1.00   0.00  0.00  0.00  0.00  1.00  0.00  0.00  0.50  0.00
  
  
  *************************
  Conduit Surcharge Summary
  *************************
  
  ----------------------------------------------------------------------------
                                                           Hours        Hours 
                         --------- Hours Full --------   Above Full   Capacity
  Conduit                Both Ends  Upstream  Dnstream   Normal Flow   Limited
  ----------------------------------------------------------------------------
  WS02006229WS02006228        5.19      5.28      5.19      6.01         5.19
  WS02006256WS02006235        6.38      6.38      7.08      5.10         0.01
  WS02006253WS02006251        1.42      1.42      1.52      0.01         0.01
  WS02006252WS02006251        1.17      1.17      2.09      1.61         0.01
  WS02006251WS02006249        1.44      1.45      1.52      0.85         0.62
  WS02006249WS02006248        1.41      1.41      1.52      4.51         0.01
  WS02006248WS02006247        1.48      1.48      1.79      0.01         0.01
  WS02006247WS02006245        1.74      1.89      1.74      4.72         1.55
  WS02006245WS02006243        1.83      1.84      2.21      0.66         0.47
  WS02006243WS02006242        2.39      2.39      4.30      0.01         0.01
  WS02006242WS02006240        3.96      3.96      4.52      1.94         0.01
  WS02006240WS02006239        4.06      4.10      4.23      1.04         0.65
  WS02006239WS02006238        4.55      4.62      4.63      1.18         0.78
  WS02006238WS02006235        4.57      4.57      4.77      0.01         0.02
  WS02006235WS02006234        4.07      4.07      4.51      6.38         0.01
  WS02006234WS02006232        4.34      4.34      4.88      0.51         0.50
  WS02006232WS02006231        1.62      1.62      4.88      0.63         0.01
  WS02006231WS02006230        1.12      1.12      1.73      6.39         0.01
  WS02006230WS02006229        5.64      5.87      5.64      6.47         5.64
  WS02006228WS02006109        5.22      5.47      5.22      6.11         5.22
  WS02006116WS02004401        0.43      0.43      0.44      0.38         0.39
[...]
  YS02001770YS02001767        5.86      5.86      5.86      0.49         0.61
  YS02001774YS02001770        5.84      5.84      5.90      0.01         0.01
  YS02001779YS02001774        5.73      5.73      5.90      0.01         0.01
  YS02001649YS02001757        5.92      5.92      6.03      0.01         0.01
  YS02001767YS02001765        5.86      5.86      5.88      0.01         0.01
  YS02006561YS02001783        0.90      0.90      1.42      0.01         0.01
  YS02001783YS02001784        1.40      1.42      1.40      1.46         1.28
  YS02001784YS02001785        1.34      1.40      1.34      2.48         1.34
  YS02001788YS02001790        1.16      1.16      2.16      0.01         0.01
  YS02001790YS02001791        2.16      2.16      2.28      1.17         1.15
  YS02001791YS02001793        2.28      2.28      2.71      0.01         0.01
  YS02001910YS02001907        1.29      1.29      1.90      0.01         0.01
  YS02001786YS02001788        1.15      1.34      1.16      2.09         1.15
  YS02001915YS02001910        1.09      1.09      1.29      0.01         0.01
  YS02001918YS02001915        0.88      0.88      1.09      0.01         0.01
  YS02001923YS02001920        0.74      0.74      0.91      0.01         0.01
  YS02001920YS02001918        0.88      0.88      0.91      0.01         0.01
  YS02001629YS02163301        5.83      5.83      5.85      0.01         0.01
  YS02001619YS02001622        5.54      5.54      5.57      0.01         0.01
  YS02001622YS02001625        5.57      5.57      5.81      0.01         0.01
  YS02001625YS02001629        5.55      5.55      5.81      0.01         0.01
  YS02163301YS02001633        5.85      5.85      5.89      0.01         0.01
  YS02163601YS02164001        5.89      5.89      5.92      0.01         0.01
  YS02164001YS02001641        5.89      5.89      5.89      0.01         0.02
  YS02001641YS02001644        5.89      5.89      5.90      1.72         2.00
  YS02001647YS02001649        5.79      5.79      5.92      0.01         0.01
  YS02006553YS02006556        1.51      1.51      1.99      0.01         0.01
  YS02006556YS02006558        1.68      1.68      2.05      0.01         0.01
  YSB6556YSB1171              0.01      0.01      0.07      0.01         0.01
  YS02001907YS02006553        2.54      2.54      2.77      0.01         0.01
  YS02006558YS02006561        1.03      1.48      1.03      2.35         1.03
  YS02001633YS02163601        5.87      5.87      5.92      0.01         0.01
  YS02001644YS02001647        5.79      5.79      5.90      0.01         0.01
  YS02001745YS02001748        0.01      0.01      5.39      0.01         0.01
  YS02001748YS02001751        5.44      5.44      5.53      0.01         0.01
  YS02001751YS02001754        5.53      5.53      5.74      0.01         0.01
  YS02001754YS02001757        5.78      5.78      6.03      0.01         0.01
  YS02001882YS02001884        1.11      1.11      1.14      0.01         0.01
  YS02001884YS02001887        1.19      1.19      1.21      0.01         0.01
  YS02001890YS02001895        1.08      1.08      1.30      0.01         0.01
  YS02001895YS02001898        1.06      1.06      1.08      0.01         0.01
  YS02001898YS02001901        1.08      1.08      1.18      0.01         0.01
  YS02001901YS02001904        1.16      1.16      1.18      0.01         0.01
  YS02001904YS02001907        1.16      1.16      2.00      0.01         0.01
  YS02001887YS02001890        1.24      1.24      1.27      0.16         0.01
  YS02001652YS02001649        5.80      5.80      5.92      0.01         0.01
  YS02001655YS02001652        5.56      5.56      5.77      0.01         0.01
  YS02001658YS02001655        5.42      5.42      5.56      0.01         0.01
  YS02001661YS02001658        0.10      0.10      5.42      0.01         0.01
  YS02001664YS02001661        0.01      0.01      1.30      0.01         0.01
  HS02004881HS02006253        0.01      0.01      0.58      0.01         0.01
  YS02001793JiankangQianchi        2.59      2.59      4.39      0.01         0.01
  YS02001757CaochengTiaoxuchi        5.28      5.28      6.03      0.01         0.01
  
  
  ***************
  Pumping Summary
  ***************
  
  ---------------------------------------------------------------------------------------------------------
                                                  Min       Avg       Max     Total     Power    % Time Off
                        Percent   Number of      Flow      Flow      Flow    Volume     Usage    Pump Curve
  Pump                 Utilized   Start-Ups       LPS       LPS       LPS  10^6 ltr     Kw-hr    Low   High
  ---------------------------------------------------------------------------------------------------------
  CC-Pump-1               62.50           2      0.00    193.20    200.00     3.420      3.09    0.0    0.0
  CC-Pump-2               29.16           6      0.00     92.33    200.00     0.960      1.21    0.0    0.0
  JK-Pump-1               68.74           5      0.00    230.92    300.00     4.522     64.83    0.0    0.0
  JK-Pump-2               52.08           4      0.00    399.62    683.00     6.251     82.84    0.0   95.6
  XR-Pump-1              100.00           1      0.00     95.00     95.00     2.736     28.53    0.0    0.0
  XR-Pump-2              100.00           1      0.00     94.09     95.00     2.679     27.37    0.0    0.0
  XR-Pump-3               89.59           2      0.00     94.31     95.00     2.394     20.97    0.0    0.0
  XR-Pump-4               89.59           2      0.00     94.31     95.00     2.394     20.97    0.0    0.0
  
  
  ***************************
  Link Pollutant Load Summary
  ***************************
  
  ------------------------------------------------------------------------------------------
                                 COD            SS            TN            TP         NH4-N
  Link                            kg            kg            kg            kg            kg
  ------------------------------------------------------------------------------------------
  WS02003066WSF200           953.075      1771.851        24.666         2.134        12.940
  WS02006287WS02006284       320.813       610.224        10.444         1.031         5.760
  WS02006284WS02006280       321.304       611.024        10.491         1.037         5.789
  WS02006280WS02006229       321.252       610.915        10.489         1.037         5.788
  WS02006229WS02006228       948.877      1764.079        24.063         2.051        12.554
  WS02006256WS02006235       238.603       438.454         5.329         0.417         2.702
  WS02006253WS02006251        59.287       116.810         1.306         0.098         0.647
  WS02006252WS02006251       362.274       658.286         7.609         0.547         3.743
  WS02006251WS02006249       416.159       765.456         8.821         0.640         4.348
  WS02006249WS02006248       398.765       731.907         8.461         0.613         4.171
  WS02006248WS02006247       398.235       730.956         8.454         0.613         4.168
  WS02006247WS02006245       397.563       729.778         8.437         0.612         4.160
  WS02006245WS02006243       396.966       728.803         8.421         0.610         4.151
  WS02006243WS02006242       396.181       727.448         8.404         0.609         4.143
  WS02006242WS02006240       395.266       725.811         8.390         0.609         4.137
  WS02006240WS02006239       394.725       724.762         8.393         0.610         4.141
  WS02006239WS02006238       394.953       724.946         8.436         0.615         4.169
  WS02006238WS02006235       395.126       725.093         8.458         0.618         4.182
  WS02006235WS02006234       630.283      1157.773        13.640         1.020         6.800
  WS02006234WS02006232       629.903      1157.078        13.638         1.020         6.800
  WS02006232WS02006231       629.429      1156.235        13.626         1.019         6.794
  WS02006231WS02006230       628.946      1155.348        13.618         1.019         6.790
  WS02006230WS02006229       628.185      1154.082        13.594         1.017         6.778
  WS02006228WS02006109       948.296      1763.044        24.049         2.050        12.547
  WS02006116WS02004401       963.466      1790.364        24.922         2.154        13.071
  WS02006115WS02006116       964.417      1792.017        24.950         2.157        13.087
  WS02006113WS02006111       954.574      1772.639        24.799         2.146        13.021
  WS02006112WS02006115       965.477      1793.848        24.989         2.161        13.109
  WS02006111WS02006112       954.323      1772.263        24.791         2.145        13.017
  WS02006110WS02006113       955.210      1773.798        24.820         2.148        13.033
  WS02006109WS02006110       956.355      1775.824        24.869         2.153        13.061
  WS02004411WS02004412       956.222      1777.348        24.778         2.145        13.003
  WS02004401WS02004402       962.446      1788.590        24.886         2.151        13.052
  WS02004413WS02003067       953.817      1773.224        24.686         2.136        12.951
  WS02004412WS02004413       955.119      1775.433        24.741         2.142        12.983
  WS02004410WS02004411       957.181      1779.044        24.808         2.148        13.019
  WS02004409WS02004410       958.143      1780.730        24.840         2.151        13.037
  WS02004407WS02004409       958.959      1782.180        24.863         2.153        13.050
  WS02004406WS02004407       959.255      1782.756        24.867         2.153        13.051
  WS02004405WS02004406       960.623      1785.149        24.925         2.159        13.084
  WS02004404WS02004405       961.279      1786.366        24.921         2.158        13.079
  WS02004403WS02004404       960.698      1785.533        24.828         2.145        13.020
  WS02004402WS02004403       961.537      1786.994        24.858         2.148        13.036
  WS02004139WS02001211      1429.167      2372.347       116.104        14.174        71.571
  WS02004138WS02004139      1435.461      2382.845       116.593        14.233        71.872
  WS02003067WS02003066       953.303      1772.259        24.674         2.135        12.945
  WS02001213WS02003059      1463.056      2425.636       119.608        14.616        73.773
  WS02001212WS02001213      1472.329      2440.977       120.364        14.708        74.240
  WS02001211WS02001212      1474.501      2444.525       120.552        14.731        74.356
  WS02003072WS02003073      2518.627      4360.342       154.481        18.031        93.108
  WS02003069WS02003072      2523.586      4368.402       154.895        18.082        93.364
  WS02003060WS02003069      2526.084      4372.706       155.032        18.098        93.445
  WS02003059WS02003060      1459.714      2420.004       119.364        14.587        73.624
  HS02004901HS02004770        13.094        25.475         0.248         0.019         0.116
  HS02004876HS02004881        45.540        90.384         1.002         0.074         0.493
  HS02004870HS02004876        34.408        68.144         0.800         0.060         0.397
  HS02004842HS02004848         6.459        12.346         0.134         0.009         0.062
  HS02004837HS02004842        11.059        19.641         0.603         0.068         0.356
  HS02004830HS02004837        71.252       124.253         4.735         0.564         2.884
  HS02004824HS02004830        72.046       125.544         4.809         0.573         2.930
  HS02004817HS02004824        98.139       177.964         5.348         0.608         3.193
  HS02004770HS02004777        49.661        97.709         1.021         0.069         0.472
  HS02004799HS02004480       162.623       311.306         4.293         0.383         2.228
  HS02004792HS02004799       147.578       280.603         4.058         0.371         2.124
  HS02004788HS02004792        83.088       158.116         2.692         0.259         1.457
  HS02004785HS02004788        51.143       100.082         1.174         0.089         0.568
  HS02004777HS02004785        50.446        98.941         1.112         0.081         0.530
  HS02004480HS02004478       205.118       395.648         5.001         0.433         2.562
  HS02004479HS02004480        46.128        90.113         1.037         0.091         0.538
  HS02004862HS02004870        25.828        50.383         0.631         0.050         0.316
  HS02004848HS02004852        10.251        19.884         0.210         0.014         0.097
  HS02004856HS02004862        17.524        34.747         0.350         0.023         0.164
  HS02004852HS02004856        10.255        19.889         0.210         0.014         0.097
  HS02004802HS02004478       116.376       215.699         5.497         0.605         3.231
  HS02004478WS02006287       321.027       610.597        10.461         1.033         5.770
  HS02004817HS02004807        96.907       175.986         5.230         0.593         3.120
  HS02004807HS02004802       116.637       216.109         5.529         0.609         3.252
  YS02001759YS02001757       347.783       637.176         6.976         0.485         3.410
  YS02001762YS02001759       189.761       350.257         3.979         0.281         1.966
  YS02001765YS02001762       190.120       351.441         4.005         0.283         1.981
  YS02001770YS02001767       190.385       353.702         3.811         0.254         1.850
  YS02001774YS02001770       268.944       524.702         5.140         0.342         2.483
  YS02001779YS02001774       267.888       522.565         5.224         0.356         2.542
  YS02001649YS02001757       351.329       635.575         7.025         0.486         3.371
  YS02001767YS02001765       191.004       353.584         4.035         0.285         1.997
  YS02006561YS02001783      1029.677      1907.970        21.627         1.616        10.768
  YS02001783YS02001784      1029.564      1907.788        21.623         1.616        10.766
  YS02001784YS02001785      1037.018      1919.710        22.351         1.707        11.221
  YS02001788YS02001790      1037.602      1920.637        22.424         1.717        11.268
  YS02001790YS02001791      1038.665      1922.339        22.527         1.730        11.332
  YS02001791YS02001793      1038.553      1922.143        22.522         1.729        11.329
  YS02001910YS02001907       393.341       724.861         9.472         0.726         4.858
  YS02001786YS02001788      1037.205      1920.008        22.379         1.711        11.239
  YS02001915YS02001910       393.386       724.930         9.424         0.720         4.826
  YS02001918YS02001915       187.779       330.849         5.199         0.474         2.803
  YS02001923YS02001920       167.124       297.599         3.206         0.225         1.557
  YS02001926YS02001923       165.779       295.337         3.127         0.216         1.510
  YS02001929YS02001926       165.345       294.607         3.088         0.211         1.486
  YS02001920YS02001918       187.302       329.852         5.161         0.470         2.780
  YS02001629YS02163301        96.538       170.589         2.039         0.132         0.951
  YS02001619YS02001622       176.337       321.842         3.613         0.236         1.689
  YS02001622YS02001625       175.166       319.984         3.585         0.234         1.676
  YS02001625YS02001629        97.610       172.339         2.064         0.133         0.962
  YS02163301YS02001633        96.901       171.462         2.042         0.132         0.953
  YS02163601YS02164001       407.192       735.406         7.934         0.565         3.801
  YS02164001YS02001641       406.667       734.515         7.914         0.563         3.790
  YS02001641YS02001644       406.718       734.520         7.910         0.562         3.787
  YS02001647YS02001649       448.827       825.017         8.851         0.616         4.221
  YS02006553YS02006556       695.250      1277.675        14.979         1.148         7.543
  YS02006556YS02006558       695.175      1277.518        14.950         1.144         7.523
  YSB6556YSB1171              26.521        51.966         0.537         0.045         0.271
  YS02001907YS02006553       695.358      1277.907        14.987         1.149         7.548
  YS02006558YS02006561      1029.672      1907.965        21.626         1.616        10.768
  YS02001633YS02163601       407.884       736.480         7.914         0.561         3.784
  YS02001644YS02001647       454.812       835.907         8.954         0.623         4.270
  YS02001745YS02001748       250.996       468.978         5.542         0.385         2.758
  YS02001748YS02001751       248.798       464.868         5.564         0.392         2.781
  YS02001751YS02001754       247.877       463.351         5.551         0.392         2.776
  YS02001754YS02001757       248.676       464.552         5.719         0.415         2.885
  YS02001882YS02001884         3.019         5.218         0.061         0.005         0.031
  YS02001884YS02001887         7.164        12.668         0.141         0.011         0.070
  YS02001890YS02001895       451.545       847.335         8.318         0.626         4.058
  YS02001895YS02001898       451.386       847.120         8.312         0.625         4.055
  YS02001898YS02001901       451.209       846.815         8.308         0.625         4.053
  YS02001901YS02001904       451.048       846.580         8.314         0.626         4.057
  YS02001904YS02001907       451.239       846.862         8.367         0.633         4.091
  YS02001887YS02001890       468.800       881.559         8.661         0.654         4.231
  YS02001652YS02001649       201.321       374.373         4.052         0.292         1.901
  YS02001655YS02001652       201.863       375.265         4.066         0.293         1.908
  YS02001658YS02001655       201.244       374.280         3.975         0.281         1.849
  YS02001661YS02001658       204.594       380.289         4.043         0.286         1.880
  YS02001664YS02001661       220.235       405.634         4.402         0.310         2.044
  YSB1154YSB6556              26.084        51.269         0.486         0.038         0.239
  YSB1174YSB1171              18.021        35.561         0.361         0.029         0.181
  YSB1171HS02004479           46.093        90.058         1.040         0.092         0.540
  HS02004881HS02006253        51.457       102.493         1.101         0.079         0.539
  YS02001793JiankangQianchi      1038.860      1922.691        22.516         1.728        11.324
  YS02001757CaochengTiaoxuchi       633.180      1137.727        13.447         0.960         6.611
  WSF200WS02003060           952.734      1771.189        24.663         2.134        12.939
  1                         2525.054      4369.645       155.348        18.144        93.660
  CC-Pump-1                  282.461       513.085         5.936         0.427         2.920
  CC-Pump-2                   79.807       145.184         1.673         0.120         0.823
  JK-Pump-1                  318.694       589.964         6.870         0.525         3.450
  JK-Pump-2                  555.318      1049.623        11.428         0.857         5.680
  XR-Pump-1                  402.236       665.146        33.295         4.076        20.558
  XR-Pump-2                  390.198       645.889        32.144         3.932        19.839
  XR-Pump-3                  323.340       538.920        25.728         3.131        15.830
  XR-Pump-4                  323.340       538.920        25.728         3.131        15.830
  

  Analysis begun on:  Sat Jul 10 16:47:43 2021
  Analysis ended on:  Sat Jul 10 16:47:46 2021
  Total elapsed time: 00:00:03