
  EPA STORM WATER MANAGEMENT MODEL - VERSION 5.1 (Build 5.3.0.dev0)
  --------------------------------------------------------------

  WARNING 04: minimum elevation drop used for Conduit WS02004404WS02004405
  WARNING 03: negative offset ignored for Link YS02001904YS02001907
  
  *********************************************************
  NOTE: The summary statistics displayed in this report are
  based on results found at every computational time step,  
  not just on results from each reporting time step.
  *********************************************************
  
  ****************
  Analysis Options
  ****************
  Flow Units ............... LPS
  Process Models:
    Rainfall/Runoff ........ YES
    RDII ................... NO
    Snowmelt ............... NO
    Groundwater ............ NO
    Flow Routing ........... YES
    Ponding Allowed ........ NO
    Water Quality .......... YES
  Infiltration Method ...... HORTON
  Flow Routing Method ...... DYNWAVE
  Surcharge Method ......... EXTRAN
  Starting Date ............ 08/28/2015 08:00:00
  Ending Date .............. 08/28/2015 16:00:00
  Antecedent Dry Days ...... 8.0
  Report Time Step ......... 00:01:00
  Wet Time Step ............ 00:01:00
  Dry Time Step ............ 00:01:00
  Routing Time Step ........ 5.00 sec
  Variable Time Step ....... YES
  Maximum Trials ........... 8
  Number of Threads ........ 4
  Head Tolerance ........... 0.001500 m
  
  
  **************************        Volume         Depth
  Runoff Quantity Continuity     hectare-m            mm
  **************************     ---------       -------
  Total Precipitation ......        10.887        23.836
  Evaporation Loss .........         0.000         0.000
  Infiltration Loss ........         1.418         3.104
  Surface Runoff ...........         8.323        18.222
  Final Storage ............         1.148         2.513
  Continuity Error (%) .....        -0.015
  
  
  **************************           COD            SS            TN            TP         NH4-N
  Runoff Quality Continuity             kg            kg            kg            kg            kg
  **************************    ----------    ----------    ----------    ----------    ----------
  Initial Buildup ..........     41378.656     70582.865      1804.177       168.684      1032.807
  Surface Buildup ..........        44.730        99.549         2.633         0.232         1.473
  Wet Deposition ...........         0.000         0.000         0.000         0.000         0.000
  Sweeping Removal .........         0.000         0.000         0.000         0.000         0.000
  Infiltration Loss ........       168.080       326.771         3.336         0.241         1.609
  BMP Removal ..............         0.000         0.000         0.000         0.000         0.000
  Surface Runoff ...........      9382.764     18311.870       184.103        12.981        88.313
  Remaining Buildup ........     31869.465     52037.902      1619.303       155.690       944.326
  Continuity Error (%) .....         0.007         0.008         0.004         0.003         0.003
  
  
  **************************        Volume        Volume
  Flow Routing Continuity        hectare-m      10^6 ltr
  **************************     ---------     ---------
  Dry Weather Inflow .......         0.630         6.296
  Wet Weather Inflow .......         8.321        83.208
  Groundwater Inflow .......         0.000         0.000
  RDII Inflow ..............         0.000         0.000
  External Inflow ..........         0.105         1.045
  External Outflow .........         2.202        22.023
  Flooding Loss ............         6.377        63.767
  Evaporation Loss .........         0.000         0.000
  Exfiltration Loss ........         0.000         0.000
  Initial Stored Volume ....         0.076         0.761
  Final Stored Volume ......         0.660         6.601
  Continuity Error (%) .....        -1.183
  
  
  **************************           COD            SS            TN            TP         NH4-N
  Quality Routing Continuity            kg            kg            kg            kg            kg
  **************************    ----------    ----------    ----------    ----------    ----------
  Dry Weather Inflow .......      1573.993      2518.389       151.103        18.888        94.440
  Wet Weather Inflow .......      9381.657     18309.942       184.078        12.979        88.302
  Groundwater Inflow .......         0.000         0.000         0.000         0.000         0.000
  RDII Inflow ..............         0.000         0.000         0.000         0.000         0.000
  External Inflow ..........       187.321       299.713        17.983         2.248        11.239
  External Outflow .........      2778.902      5085.947       135.639        15.073        79.593
  Flooding Loss ............      7601.136     14670.573       188.739        16.136        98.139
  Exfiltration Loss ........         0.000         0.000         0.000         0.000         0.000
  Mass Reacted .............         0.000         0.000         0.000         0.000         0.000
  Initial Stored Mass ......         0.000         0.000         0.000         0.000         0.000
  Final Stored Mass ........       654.987      1193.860        25.412         2.609        14.441
  Continuity Error (%) .....         0.969         0.841         0.956         0.868         0.931
  
  
  *************************
  Highest Continuity Errors
  *************************
  Node HS02004842 (7.72%)
  Node YS02001884 (7.59%)
  Node JK-storage (-7.30%)
  Node HS02004817 (1.57%)
  Node WS02006253 (1.46%)
  
  
  ***************************
  Time-Step Critical Elements
  ***************************
  Link WS02006252WS02006251 (57.78%)
  Link WS02006280WS02006229 (13.13%)
  Link WS02006238WS02006235 (8.51%)
  Link YS02006556YS02006558 (3.44%)
  Link YS02001793JiankangQianchi (2.56%)
  
  
  ********************************
  Highest Flow Instability Indexes
  ********************************
  Link WS02006113WS02006111 (40)
  Link YS02163301YS02001633 (26)
  Link YS02163601YS02164001 (26)
  Link YS02001629YS02163301 (26)
  Link YS02001619YS02001622 (25)
  
  
  *************************
  Routing Time Step Summary
  *************************
  Minimum Time Step           :     0.50 sec
  Average Time Step           :     1.31 sec
  Maximum Time Step           :     5.00 sec
  Percent in Steady State     :    -0.00
  Average Iterations per Step :     3.50
  Percent Not Converging      :     9.90
  
  
  ***************************
  Subcatchment Runoff Summary
  ***************************
  
  ------------------------------------------------------------------------------------------------------------------------------
                            Total      Total      Total      Total     Imperv       Perv      Total       Total     Peak  Runoff
                           Precip      Runon       Evap      Infil     Runoff     Runoff     Runoff      Runoff   Runoff   Coeff
  Subcatchment                 mm         mm         mm         mm         mm         mm         mm    10^6 ltr      LPS
  ------------------------------------------------------------------------------------------------------------------------------
  sub0                      23.84       0.00       0.00       0.77      22.13       0.90      23.02        0.02     5.06   0.966
  sub1                      23.84       0.00       0.00       1.33      21.12       1.29      22.42        0.15    33.98   0.940
  sub2                      23.84       0.00       0.00       5.60      14.93       3.22      18.15        0.17    32.49   0.761
  sub3                      23.84       0.00       0.00       5.94      14.89       2.88      17.77        0.40    70.76   0.746
  sub4                      23.84       0.00       0.00       1.46      20.96       1.16      22.12        0.46    81.55   0.928
  sub5                      23.84       0.00       0.00       0.82      22.07       0.85      22.93        0.26    59.56   0.962
  sub7                      23.84       0.00       0.00       1.03      21.63       1.11      22.74        0.08    19.22   0.954
  sub8                      23.84       0.00       0.00       1.05      21.62       1.10      22.72        0.15    35.26   0.953
  sub9                      23.84       0.00       0.00       1.05      21.62       1.10      22.71        0.11    26.33   0.953
  sub10                     23.84       0.00       0.00       0.94      21.84       0.97      22.81        0.25    58.74   0.957
  sub11                     23.84       0.00       0.00       0.92      21.86       0.99      22.85        0.27    65.28   0.959
  sub12                     23.84       0.00       0.00       1.50      20.69       1.60      22.29        0.19    51.10   0.935
  sub14                     23.84       0.00       0.00       1.05      21.62       1.09      22.71        0.22    51.81   0.953
  sub15                     23.84       0.00       0.00       4.05      16.62       3.10      19.72        0.34    74.01   0.827
  sub16                     23.84       0.00       0.00       4.23      15.93       3.63      19.56        0.20    48.29   0.821
  sub17                     23.84       0.00       0.00       4.13      16.17       3.50      19.67        0.17    39.49   0.825
  sub22                     23.84       0.00       0.00       6.08      13.55       4.17      17.72        1.12   235.47   0.743
  sub23                     23.84       0.00       0.00       5.01      14.97       3.81      18.78        0.90   197.86   0.788
  sub60                     23.84       0.00       0.00       2.13      18.89       0.73      19.63        5.95   667.30   0.823
  sub61                     23.84       0.00       0.00       3.01      18.57       1.04      19.60        6.04   717.95   0.822
  sub62                     23.84       0.00       0.00       1.25      20.37       0.65      21.02        6.46   751.14   0.882
  sub63                     23.84       0.00       0.00       5.57      16.07       1.34      17.42        5.27   638.31   0.731
  sub64                     23.84       0.00       0.00       2.78      18.18       0.79      18.97        5.77   644.78   0.796
  sub65                     23.84       0.00       0.00       2.36      18.54       0.74      19.28        5.93   658.64   0.809
  sub66                     23.84       0.00       0.00       5.92      15.42       0.99      16.41        5.03   574.80   0.689
  sub67                     23.84       0.00       0.00       1.18      20.95       0.73      21.68        6.69   814.16   0.910
  sub68                     23.84       0.00       0.00       2.35      19.39       0.99      20.38        6.27   750.28   0.855
  sub69                     23.84       0.00       0.00       2.36      19.64       1.21      20.85        4.87   655.18   0.875
  sub70                     23.84      21.29       0.00      10.13      28.17       5.22      33.38        7.64   861.91   0.740
  sub71                     23.84       0.00       0.00       1.29      20.08       0.62      20.70        4.89   557.88   0.868
  sub72                     23.84       0.00       0.00       1.26      17.61       0.41      18.02        3.67   352.81   0.756
  1                         23.84      32.51       0.00       1.40      34.72      12.67      47.39       11.14  1042.57   0.841
  2                         23.84       0.00       0.00       3.09       5.81       5.87      11.68        4.67   438.27   0.490
  
  
  ****************************
  Subcatchment Washoff Summary
  ****************************
  
  ------------------------------------------------------------------------------------------
                                 COD            SS            TN            TP         NH4-N
  Subcatchment                    kg            kg            kg            kg            kg
  ------------------------------------------------------------------------------------------
  sub0                         5.447        10.648         0.101         0.009         0.050
  sub1                        23.688        48.042         0.463         0.033         0.225
  sub2                        16.966        34.031         0.358         0.025         0.167
  sub3                        41.903        83.509         0.867         0.061         0.406
  sub4                        55.507       114.756         1.120         0.071         0.542
  sub5                        53.600       106.723         1.016         0.079         0.498
  sub7                        11.854        24.343         0.233         0.016         0.114
  sub8                        17.650        37.231         0.360         0.022         0.174
  sub9                        15.191        31.538         0.304         0.020         0.147
  sub10                       44.044        88.979         0.851         0.062         0.416
  sub11                       42.563        86.978         0.834         0.059         0.406
  sub12                       37.050        74.157         0.712         0.055         0.347
  sub14                       32.601        66.963         0.643         0.044         0.313
  sub15                       47.434        94.407         0.941         0.071         0.448
  sub16                       30.857        61.246         0.608         0.047         0.290
  sub17                       28.315        55.641         0.547         0.044         0.262
  sub22                      161.087       316.749         3.138         0.242         1.488
  sub23                       88.506       179.789         1.886         0.128         0.879
  sub60                      598.344      1178.908        11.877         0.761         5.730
  sub61                      736.068      1436.782        13.949         0.989         6.764
  sub62                      738.540      1463.835        14.545         0.960         7.035
  sub63                      558.943      1077.056        11.149         0.807         5.246
  sub64                      777.492      1479.304        14.547         1.088         7.009
  sub65                      791.436      1511.452        14.887         1.096         7.181
  sub66                      451.426       868.821         9.100         0.616         4.299
  sub67                     1074.243      2092.188        20.037         1.514         9.765
  sub68                      790.053      1552.644        15.337         1.072         7.395
  sub69                      691.205      1362.870        13.308         0.965         6.426
  sub70                     1290.326      2537.678        26.802         1.932        12.782
  sub71                      488.998       981.149         9.988         0.605         4.811
  sub72                      442.986       835.563         8.315         0.589         4.024
  1                         1060.964      2097.547        22.233         1.602        10.518
  2                          119.003       220.893         3.158         0.194         1.368
  ------------------------------------------------------------------------------------------
  System                   11364.294     22212.418       224.213        15.877       107.522
  
  
  ******************
  Node Depth Summary
  ******************
  
  ---------------------------------------------------------------------------------
                                 Average  Maximum  Maximum  Time of Max    Reported
                                   Depth    Depth      HGL   Occurrence   Max Depth
  Node                 Type       Meters   Meters   Meters  days hr:min      Meters
  ---------------------------------------------------------------------------------
  WS02001211           JUNCTION     0.78     0.86     5.69     0  01:43        0.86
  WS02001212           JUNCTION     0.49     0.59     5.65     0  01:42        0.59
  WS02001213           JUNCTION     0.73     0.87     5.63     0  01:42        0.87
  WS02003069           JUNCTION     0.52     0.73     5.32     0  01:43        0.73
  WS02003072           JUNCTION     0.58     0.78     5.15     0  01:44        0.78
  WS02003073           JUNCTION     0.35     0.49     4.55     0  01:42        0.49
  WS02003060           JUNCTION     0.46     0.65     5.58     0  01:42        0.65
  WS02003066           JUNCTION     0.25     0.40     5.95     0  01:36        0.40
  WS02003059           JUNCTION     0.78     0.92     5.61     0  01:43        0.92
  WS02003067           JUNCTION     0.59     0.84     6.16     0  01:35        0.84
  WS02004401           JUNCTION     0.74     1.48     7.48     0  01:32        1.29
  WS02004402           JUNCTION     0.77     1.43     7.39     0  01:32        1.26
  WS02004403           JUNCTION     0.78     1.39     7.32     0  01:32        1.23
  WS02004404           JUNCTION     0.85     1.41     7.26     0  01:32        1.27
  WS02004406           JUNCTION     0.85     1.26     7.09     0  01:32        1.18
  WS02004409           JUNCTION     0.54     1.04     6.81     0  01:35        1.03
  WS02004410           JUNCTION     0.56     1.01     6.73     0  01:35        0.99
  WS02004411           JUNCTION     0.57     0.97     6.65     0  01:35        0.97
  WS02004412           JUNCTION     0.57     0.94     6.58     0  01:35        0.93
  WS02004413           JUNCTION     0.72     1.05     6.52     0  01:35        1.04
  WS02004405           JUNCTION     0.84     1.37     7.22     0  01:32        1.24
  WS02006109           JUNCTION     0.87     1.91     8.52     0  01:33        1.87
  WS02006110           JUNCTION     0.83     1.79     8.37     0  01:32        1.63
  WS02006111           JUNCTION     0.31     1.29     7.99     0  01:32        1.00
  WS02006112           JUNCTION     0.94     1.91     7.79     0  01:32        1.65
  WS02006113           JUNCTION     0.40     1.43     8.32     0  01:32        1.07
  WS02006115           JUNCTION     0.65     1.54     7.68     0  01:32        1.29
  WS02006116           JUNCTION     0.73     1.55     7.59     0  01:32        1.32
  WS02006230           JUNCTION     0.88     2.13     8.88     0  01:33        2.11
  WS02006231           JUNCTION     0.63     1.74     8.86     0  01:33        1.72
  WS02006232           JUNCTION     0.77     1.81     8.85     0  01:33        1.79
  WS02006234           JUNCTION     0.70     1.68     8.84     0  01:34        1.66
  WS02006235           JUNCTION     0.73     1.67     8.84     0  01:34        1.65
  WS02006238           JUNCTION     0.75     1.69     8.83     0  01:34        1.66
  WS02006240           JUNCTION     0.64     1.50     8.80     0  01:34        1.48
  WS02006242           JUNCTION     0.69     1.50     8.77     0  01:34        1.48
  WS02006243           JUNCTION     0.57     1.43     8.85     0  04:52        1.38
  WS02006245           JUNCTION     0.53     1.25     8.74     0  04:52        1.24
  WS02006247           JUNCTION     0.54     1.21     8.71     0  01:34        1.20
  WS02006248           JUNCTION     0.48     1.10     8.69     0  01:32        1.10
  WS02006249           JUNCTION     0.50     1.09     8.69     0  01:32        1.09
  WS02006239           JUNCTION     0.70     1.60     8.81     0  01:34        1.58
  WS02006251           JUNCTION     0.48     1.48     9.15     0  01:32        1.14
  WS02006252           JUNCTION     0.31     0.93     9.17     0  01:32        0.69
  WS02006253           JUNCTION     0.50     1.95     9.59     0  01:32        1.16
  WS02006256           JUNCTION     1.79     2.35     9.28     0  00:00        2.35
  WS02004138           JUNCTION     0.19     0.20     7.45     0  00:00        0.19
  WS02004139           JUNCTION     0.72     0.80     5.71     0  01:42        0.80
  WS02004407           JUNCTION     0.24     0.42     6.73     0  01:35        0.42
  WS02006228           JUNCTION     0.89     2.11     8.76     0  01:33        2.08
  WS02006229           JUNCTION     0.88     2.20     8.90     0  01:33        2.17
  WS02006280           JUNCTION     0.09     0.51     8.78     0  01:33        0.50
  WS02006284           JUNCTION     0.40     0.72     9.12     0  01:34        0.72
  WS02006287           JUNCTION     0.13     0.46     9.42     0  01:34        0.46
  WSF200               JUNCTION     0.24     0.45     5.69     0  01:37        0.45
  HS02004901           JUNCTION     0.15     0.43    10.25     0  01:33        0.43
  HS02004881           JUNCTION     0.01     0.09     9.12     0  01:32        0.06
  HS02004876           JUNCTION     0.05     0.19     9.22     0  01:32        0.19
  HS02004870           JUNCTION     0.02     0.11     9.40     0  01:35        0.11
  HS02004862           JUNCTION     0.03     0.13     9.51     0  01:35        0.13
  HS02004856           JUNCTION     0.09     0.17     9.59     0  01:35        0.17
  HS02004852           JUNCTION     0.02     0.10     9.61     0  01:35        0.10
  HS02004848           JUNCTION     0.02     0.08     9.68     0  01:36        0.08
  HS02004842           JUNCTION     0.34     0.41     9.68     0  01:35        0.41
  HS02004837           JUNCTION     0.04     0.10     9.68     0  01:35        0.10
  HS02004830           JUNCTION     0.05     0.15     9.62     0  01:35        0.15
  HS02004824           JUNCTION     0.04     0.20     9.61     0  01:35        0.20
  HS02004817           JUNCTION     0.47     0.77     9.62     0  01:34        0.77
  HS02004807           JUNCTION     0.15     0.44     9.61     0  01:35        0.44
  HS02004802           JUNCTION     0.19     0.47     9.60     0  01:34        0.47
  HS02004799           JUNCTION     0.16     0.55     9.76     0  01:33        0.55
  HS02004792           JUNCTION     0.05     0.27     9.79     0  01:33        0.27
  HS02004788           JUNCTION     0.04     0.19    10.09     0  01:34        0.19
  HS02004785           JUNCTION     0.07     0.29    10.19     0  01:33        0.29
  HS02004777           JUNCTION     0.17     0.44    10.24     0  01:33        0.44
  HS02004770           JUNCTION     0.14     0.42    10.25     0  01:33        0.42
  HS02004480           JUNCTION     0.11     0.46     9.70     0  01:33        0.46
  HS02004479           JUNCTION     0.15     0.49     9.70     0  01:34        0.49
  HS02004478           JUNCTION     0.09     0.35     9.58     0  01:34        0.35
  YS02001745           JUNCTION     0.82     1.24     8.76     0  01:29        1.05
  YS02001748           JUNCTION     1.23     1.85     8.93     0  01:28        1.47
  YS02001751           JUNCTION     1.41     1.71     8.59     0  01:29        1.64
  YS02001754           JUNCTION     1.67     1.90     8.51     0  03:04        1.89
  YS02001762           JUNCTION     1.86     2.08     8.48     0  03:03        2.08
  YS02001765           JUNCTION     1.82     2.02     8.47     0  01:29        2.02
  YS02001767           JUNCTION     1.78     1.98     8.47     0  03:03        1.97
  YS02001770           JUNCTION     1.77     1.95     8.44     0  02:06        1.95
  YS02001774           JUNCTION     1.83     2.00     8.42     0  03:06        1.99
  YS02001779           JUNCTION     1.57     1.68     8.37     0  01:27        1.68
  YS02001882           JUNCTION     0.76     1.72     8.44     0  01:32        1.64
  YS02001884           JUNCTION     0.85     1.80     8.42     0  01:32        1.74
  YS02001759           JUNCTION     1.90     2.12     8.49     0  03:03        2.12
  YS02001887           JUNCTION     0.93     1.85     8.38     0  01:32        1.82
  YS02001890           JUNCTION     0.96     1.81     8.32     0  01:32        1.81
  YS02001898           JUNCTION     0.72     1.57     8.31     0  01:33        1.56
  YS02001901           JUNCTION     0.84     1.68     8.29     0  01:33        1.67
  YS02001904           JUNCTION     0.82     1.64     8.27     0  01:33        1.63
  YS02001907           JUNCTION     1.14     1.96     8.25     0  01:33        1.96
  YS02001910           JUNCTION     0.94     1.97     8.48     0  01:33        1.92
  YS02001915           JUNCTION     0.74     1.91     8.63     0  01:33        1.83
  YS02001918           JUNCTION     0.48     1.81     8.88     0  01:33        1.70
  YS02001619           JUNCTION     1.36     1.61     8.54     0  01:27        1.50
  YS02001629           JUNCTION     1.71     1.85     8.40     0  01:27        1.85
  YS02001641           JUNCTION     1.81     1.96     8.40     0  01:29        1.95
  YS02001644           JUNCTION     1.81     1.92     8.35     0  01:29        1.92
  YS02001652           JUNCTION     1.67     2.16     8.76     0  01:35        1.87
  YS02001655           JUNCTION     1.44     2.20     9.05     0  01:35        1.63
  YS02001920           JUNCTION     0.58     2.10     9.11     0  01:33        1.77
  YS02001923           JUNCTION     0.40     2.01     9.27     0  01:33        1.51
  YS02001926           JUNCTION     0.42     1.90     9.35     0  01:33        1.33
  YS02001929           JUNCTION     0.27     1.78     9.47     0  01:33        1.10
  YS02001658           JUNCTION     1.16     2.12     9.26     0  01:35        1.37
  YS02001661           JUNCTION     0.92     2.46     9.86     0  01:35        1.16
  YS02001664           JUNCTION     0.43     0.69     8.62     0  01:30        0.69
  YS02001622           JUNCTION     1.38     1.62     8.52     0  01:27        1.51
  YS02001633           JUNCTION     1.80     1.98     8.43     0  01:29        1.97
  YS02001649           JUNCTION     1.87     2.05     8.44     0  01:29        2.05
  YS02001757           JUNCTION     2.00     2.21     8.47     0  02:38        2.21
  YS02001895           JUNCTION     0.72     1.57     8.31     0  01:34        1.56
  YS02001625           JUNCTION     1.66     1.78     8.38     0  01:27        1.78
  YS02163301           JUNCTION     1.74     1.90     8.42     0  01:29        1.89
  YS02163601           JUNCTION     1.85     2.03     8.43     0  01:29        2.02
  YS02164001           JUNCTION     1.79     1.97     8.42     0  01:29        1.95
  YS02001647           JUNCTION     1.65     1.79     8.40     0  01:39        1.79
  YSB1154              JUNCTION     0.29     0.65     9.70     0  01:34        0.65
  YSB6556              JUNCTION     0.18     0.53     9.70     0  01:33        0.53
  YSB1174              JUNCTION     0.24     0.59     9.70     0  01:33        0.59
  YSB1171              JUNCTION     0.44     0.80     9.70     0  01:34        0.80
  YS02006553           JUNCTION     1.15     1.97     8.26     0  01:53        1.97
  YS02006561           JUNCTION     0.45     1.30     7.96     0  01:32        1.09
  YS02006556           JUNCTION     1.11     1.94     8.25     0  01:44        1.94
  YS02006558           JUNCTION     1.15     2.00     8.26     0  01:32        1.98
  YS02001783           JUNCTION     0.71     1.69     7.83     0  01:32        1.48
  YS02001784           JUNCTION     0.72     1.65     7.72     0  01:32        1.42
  YS02001786           JUNCTION     0.64     1.60     7.63     0  01:32        1.27
  YS02001788           JUNCTION     0.56     1.83     7.81     0  01:32        1.13
  YS02001790           JUNCTION     0.70     1.96     7.60     0  01:31        1.29
  YS02001791           JUNCTION     0.68     1.55     7.02     0  01:31        1.28
  YS02001793           JUNCTION     0.96     1.95     6.78     0  01:32        1.80
  WSC                  OUTFALL      0.35     0.49     1.16     0  01:43        0.49
  JK-storage           STORAGE      3.63     5.80     6.60     0  01:32        5.80
  CC-storage           STORAGE      1.24     1.48     8.48     0  02:55        1.48
  XR-storage           STORAGE      7.24     7.72     5.72     0  01:47        7.72
  
  
  *******************
  Node Inflow Summary
  *******************
  
  -------------------------------------------------------------------------------------------------
                                  Maximum  Maximum                  Lateral       Total        Flow
                                  Lateral    Total  Time of Max      Inflow      Inflow     Balance
                                   Inflow   Inflow   Occurrence      Volume      Volume       Error
  Node                 Type           LPS      LPS  days hr:min    10^6 ltr    10^6 ltr     Percent
  -------------------------------------------------------------------------------------------------
  WS02001211           JUNCTION      7.35   390.06     0  03:15       0.212        10.7       0.393
  WS02001212           JUNCTION      0.00   392.70     0  03:15           0        10.6       0.240
  WS02001213           JUNCTION      0.00   395.00     0  03:15           0        10.6       0.292
  WS02003069           JUNCTION      0.32  1378.10     0  01:43     0.00922        22.1       0.193
  WS02003072           JUNCTION      0.00  1378.32     0  01:43           0        22.1       0.222
  WS02003073           JUNCTION      1.82  1380.07     0  01:44      0.0524        22.1       0.262
  WS02003060           JUNCTION     16.53  1378.18     0  01:42       0.476        22.2       0.181
  WS02003066           JUNCTION      0.00   998.11     0  01:35           0        11.2       0.056
  WS02003059           JUNCTION      0.00   397.66     0  03:14           0        10.6       0.407
  WS02003067           JUNCTION      0.00   994.68     0  01:35           0        11.2       0.104
  WS02004401           JUNCTION      0.00  1016.04     0  01:34           0        11.5       0.235
  WS02004402           JUNCTION      0.00  1015.96     0  01:34           0        11.5       0.218
  WS02004403           JUNCTION      0.00  1016.69     0  01:34           0        11.4       0.191
  WS02004404           JUNCTION      0.16  1017.69     0  01:34     0.00467        11.4       0.137
  WS02004406           JUNCTION      0.00  1018.83     0  01:34           0        11.4       0.335
  WS02004409           JUNCTION      0.00  1016.00     0  01:34           0        11.3       0.213
  WS02004410           JUNCTION      0.00  1006.61     0  01:35           0        11.3       0.232
  WS02004411           JUNCTION      0.00   991.82     0  01:36           0        11.3       0.230
  WS02004412           JUNCTION      0.00   992.37     0  01:36           0        11.2       0.238
  WS02004413           JUNCTION      0.00   993.93     0  01:35           0        11.2       0.337
  WS02004405           JUNCTION      0.04  1018.35     0  01:34      0.0011        11.4       0.207
  WS02006109           JUNCTION      1.23   977.86     0  01:34      0.0354        11.5       0.160
  WS02006110           JUNCTION      0.00   977.86     0  01:34           0        11.4       0.205
  WS02006111           JUNCTION      0.00   977.90     0  01:34           0        11.4       0.052
  WS02006112           JUNCTION     39.49  1016.51     0  01:34       0.169        11.6       0.277
  WS02006113           JUNCTION      0.00   977.89     0  01:34           0        11.4       0.125
  WS02006115           JUNCTION      0.00  1016.03     0  01:34           0        11.5       0.242
  WS02006116           JUNCTION      0.00  1015.85     0  01:34           0        11.5       0.202
  WS02006230           JUNCTION     10.28   533.76     0  07:40       0.296        7.04       0.263
  WS02006231           JUNCTION      0.00   523.87     0  07:40           0        6.74       0.233
  WS02006232           JUNCTION      0.00   523.67     0  07:40           0        6.73       0.273
  WS02006234           JUNCTION      0.00   523.80     0  07:40           0        6.71       0.160
  WS02006235           JUNCTION      0.00   524.12     0  07:40           0        6.85       0.169
  WS02006238           JUNCTION      0.00   351.52     0  05:32           0        3.28       0.232
  WS02006240           JUNCTION      0.00   358.16     0  05:31           0        3.25       0.519
  WS02006242           JUNCTION      0.00   362.50     0  05:31           0        3.25       0.613
  WS02006243           JUNCTION      0.00   367.42     0  05:31           0        3.25       0.346
  WS02006245           JUNCTION      0.00   371.57     0  05:30           0        3.26       0.530
  WS02006247           JUNCTION      0.00   375.87     0  05:30           0        3.27       0.381
  WS02006248           JUNCTION      0.00   380.18     0  05:30           0        3.32       0.247
  WS02006249           JUNCTION      0.00   435.48     0  03:20           0        3.78       0.482
  WS02006239           JUNCTION      0.00   353.25     0  05:31           0        3.26       0.294
  WS02006251           JUNCTION      0.08   434.77     0  03:20     0.00222        3.84       0.463
  WS02006252           JUNCTION      0.00   400.00     0  07:40           0        2.88       0.022
  WS02006253           JUNCTION      5.06   276.69     0  01:31      0.0186       0.961       1.485
  WS02006256           JUNCTION      0.00   983.00     0  00:00           0        14.2      -0.008
  WS02004138           JUNCTION      0.00   380.00     0  00:00           0        10.5       0.062
  WS02004139           JUNCTION      0.32   396.51     0  00:00     0.00924        10.5       0.443
  WS02004407           JUNCTION      0.00  1019.67     0  01:34           0        11.3       0.094
  WS02006228           JUNCTION      0.00   976.59     0  01:34           0        11.4       0.142
  WS02006229           JUNCTION      0.00  1054.81     0  01:32           0        11.5       0.146
  WS02006280           JUNCTION      0.00   937.56     0  01:34           0        4.56       0.014
  WS02006284           JUNCTION      0.10   934.65     0  01:35     0.00275        4.57       0.018
  WS02006287           JUNCTION      0.00   934.65     0  01:35           0        4.56       0.019
  WSF200               JUNCTION      0.00   999.17     0  01:36           0        11.2       0.059
  HS02004901           JUNCTION     48.29    48.29     0  01:31       0.205       0.205       0.865
  HS02004881           JUNCTION     19.22   196.20     0  01:33      0.0766       0.897       0.065
  HS02004876           JUNCTION     33.98   176.89     0  01:34       0.149       0.821       0.067
  HS02004870           JUNCTION     35.26   143.34     0  01:35       0.145       0.672       0.016
  HS02004862           JUNCTION     32.69   109.55     0  01:35       0.175       0.527       0.033
  HS02004856           JUNCTION     26.33    76.92     0  01:35       0.109       0.354       0.406
  HS02004852           JUNCTION      0.00    51.63     0  01:36           0       0.245       0.024
  HS02004848           JUNCTION     70.76    70.76     0  01:38         0.4         0.4       0.012
  HS02004842           JUNCTION      0.00    21.86     0  01:49           0       0.168       8.367
  HS02004837           JUNCTION     65.09    82.02     0  01:35       0.434        0.59       0.138
  HS02004830           JUNCTION      0.15    82.12     0  01:35     0.00432        0.58       0.213
  HS02004824           JUNCTION     81.60   164.06     0  01:39       0.463        1.04       0.052
  HS02004817           JUNCTION      0.60   166.62     0  01:39      0.0173        1.06       1.598
  HS02004807           JUNCTION     65.28   225.51     0  01:36       0.265        1.31       0.341
  HS02004802           JUNCTION      0.00   226.45     0  01:37           0        1.31       0.297
  HS02004799           JUNCTION     51.81   605.47     0  01:33       0.216        2.83       0.117
  HS02004792           JUNCTION    235.75   554.35     0  01:33        1.13        2.61       0.015
  HS02004788           JUNCTION     75.68   319.93     0  01:33       0.387        1.48       0.026
  HS02004785           JUNCTION      0.15   244.47     0  01:33     0.00432         1.1       0.047
  HS02004777           JUNCTION      0.03   244.66     0  01:32    0.000864         1.1       0.478
  HS02004770           JUNCTION    197.86   245.55     0  01:32       0.896         1.1       0.278
  HS02004480           JUNCTION      0.00   713.05     0  01:33           0        3.28       0.024
  HS02004479           JUNCTION      0.00   107.71     0  01:33           0       0.464       0.161
  HS02004478           JUNCTION      0.00   934.58     0  01:35           0        4.57       0.007
  YS02001745           JUNCTION    667.30   667.30     0  03:01        5.95        5.95       0.178
  YS02001748           JUNCTION      0.04   667.53     0  03:01      0.0013        5.94       0.373
  YS02001751           JUNCTION      0.01   667.72     0  03:01    0.000317        5.92       0.406
  YS02001754           JUNCTION      0.26   668.15     0  03:01     0.00749        5.91       0.409
  YS02001762           JUNCTION      0.00   370.23     0  01:35           0        3.47       0.610
  YS02001765           JUNCTION      0.00   369.96     0  01:35           0        3.46       0.701
  YS02001767           JUNCTION      0.54   369.89     0  01:35      0.0154        3.49       1.030
  YS02001770           JUNCTION    751.30  1114.36     0  03:01        6.47        8.71       0.358
  YS02001774           JUNCTION      0.00   852.13     0  03:06           0        6.99       0.355
  YS02001779           JUNCTION      0.01   851.78     0  03:05    0.000144        6.96       0.222
  YS02001882           JUNCTION      0.00    35.86     0  01:30           0      0.0456       5.072
  YS02001884           JUNCTION      0.00    62.42     0  01:29           0      0.0865       8.218
  YS02001759           JUNCTION    717.99   898.67     0  01:41        6.05        7.24       0.313
  YS02001887           JUNCTION    814.61   815.54     0  01:58         6.7        6.74       0.131
  YS02001890           JUNCTION      0.00   815.85     0  01:57           0        6.69       0.141
  YS02001898           JUNCTION      0.00   598.44     0  01:32           0        5.41       0.057
  YS02001901           JUNCTION      0.00   603.23     0  01:32           0        5.41       0.127
  YS02001904           JUNCTION      0.00   604.49     0  01:32           0         5.4       0.116
  YS02001907           JUNCTION      0.00  1427.70     0  03:01           0          14       0.173
  YS02001910           JUNCTION      0.00   911.13     0  03:01           0        8.64       0.147
  YS02001915           JUNCTION    557.90   911.04     0  03:01        4.89         8.7       0.067
  YS02001918           JUNCTION      0.00   432.44     0  01:32           0        3.84       0.046
  YS02001619           JUNCTION    574.80   574.80     0  03:01        5.03        5.03       0.236
  YS02001629           JUNCTION      0.00   279.76     0  01:26           0         2.1       1.344
  YS02001641           JUNCTION      0.00   456.22     0  01:28           0        6.18       0.341
  YS02001644           JUNCTION    644.82  1924.45     0  03:01        5.77        20.2       0.133
  YS02001652           JUNCTION      0.00   639.57     0  03:01           0        5.22       0.433
  YS02001655           JUNCTION      0.15   639.51     0  03:01     0.00443        5.25       0.481
  YS02001920           JUNCTION      2.87   402.24     0  01:33      0.0827        3.82       0.082
  YS02001923           JUNCTION      0.04   401.24     0  01:33     0.00109        3.72       0.044
  YS02001926           JUNCTION      0.05   463.69     0  01:33      0.0015        3.69       0.083
  YS02001929           JUNCTION    352.81   352.81     0  03:01        3.67        3.67       0.005
  YS02001658           JUNCTION      0.00   639.27     0  03:01           0        5.27       0.448
  YS02001661           JUNCTION      0.00   800.06     0  01:41           0        5.58       0.044
  YS02001664           JUNCTION    638.31   638.31     0  03:01        5.27        5.58       0.081
  YS02001622           JUNCTION      0.00   574.85     0  03:01           0        5.03       0.629
  YS02001633           JUNCTION    658.84   658.84     0  03:01        5.93        7.12       0.448
  YS02001649           JUNCTION      0.00  1447.43     0  03:01           0        11.6       0.316
  YS02001757           JUNCTION      0.00  2182.20     0  01:41           0        12.7       0.724
  YS02001895           JUNCTION      0.00   594.51     0  01:32           0         5.4       0.112
  YS02001625           JUNCTION      0.00   801.23     0  03:01           0        5.88       0.678
  YS02163301           JUNCTION      0.00   279.14     0  01:26           0         2.1       1.149
  YS02163601           JUNCTION      0.11   454.30     0  01:28     0.00317        6.18       0.484
  YS02164001           JUNCTION      0.00   454.53     0  01:28           0        6.17       0.322
  YS02001647           JUNCTION      0.00   846.70     0  02:38           0        9.01       0.314
  YSB1154              JUNCTION     59.56    59.56     0  01:33        0.26        0.26       0.555
  YSB6556              JUNCTION      0.00    59.44     0  01:33           0       0.261       0.487
  YSB1174              JUNCTION     51.10    51.10     0  01:30       0.195       0.195       0.657
  YSB1171              JUNCTION      0.00   108.28     0  01:32           0       0.462       1.393
  YS02006553           JUNCTION      0.00   731.73     0  04:02           0        7.64       0.203
  YS02006561           JUNCTION      0.00  1060.99     0  01:32           0        13.9       0.001
  YS02006556           JUNCTION      0.00   731.86     0  04:02           0        7.65       0.148
  YS02006558           JUNCTION    751.16  1059.69     0  01:32        6.29        13.9       0.039
  YS02001783           JUNCTION      0.00  1023.67     0  01:31           0        13.9       0.019
  YS02001784           JUNCTION      1.06  1024.80     0  01:31      0.0305        13.9       0.030
  YS02001786           JUNCTION      0.06  1024.64     0  01:31     0.00162        13.9       0.027
  YS02001788           JUNCTION      0.07  1003.97     0  01:31     0.00204        13.9       0.018
  YS02001790           JUNCTION      0.15   984.12     0  01:50     0.00446        13.9       0.010
  YS02001791           JUNCTION      0.00   984.09     0  01:58           0        13.9       0.003
  YS02001793           JUNCTION      0.00   984.35     0  01:52           0        13.9      -0.011
  WSC                  OUTFALL       0.00  1380.41     0  01:43           0          22       0.000
  JK-storage           STORAGE       0.00  1020.29     0  01:30           0          14      -6.802
  CC-storage           STORAGE       0.00  2182.61     0  01:41           0        6.72       0.929
  XR-storage           STORAGE    1680.85  1680.85     0  03:01        21.6        22.2      -0.003
  
  
  **********************
  Node Surcharge Summary
  **********************
  
  Surcharging occurs when water rises above the top of the highest conduit.
  ---------------------------------------------------------------------
                                               Max. Height   Min. Depth
                                   Hours       Above Crown    Below Rim
  Node                 Type      Surcharged         Meters       Meters
  ---------------------------------------------------------------------
  WS02004401           JUNCTION        1.84          0.484        1.176
  WS02004402           JUNCTION        1.89          0.434        1.306
  WS02004403           JUNCTION        1.90          0.386        1.644
  WS02004404           JUNCTION        2.00          0.408        2.372
  WS02004406           JUNCTION        1.97          0.256        2.194
  WS02004409           JUNCTION        0.13          0.043        2.317
  WS02004410           JUNCTION        0.01          0.008        2.532
  WS02004413           JUNCTION        0.76          0.048        2.152
  WS02004405           JUNCTION        1.98          0.365        2.435
  WS02006109           JUNCTION        3.27          1.086        0.734
  WS02006110           JUNCTION        2.41          0.878        0.972
  WS02006111           JUNCTION        0.60          0.476        1.394
  WS02006112           JUNCTION        2.43          0.911        0.769
  WS02006113           JUNCTION        0.65          0.628        1.302
  WS02006115           JUNCTION        1.65          0.533        1.717
  WS02006116           JUNCTION        1.74          0.486        1.804
  WS02006230           JUNCTION        2.33          1.052        0.518
  WS02006231           JUNCTION        2.46          1.030        0.500
  WS02006232           JUNCTION        3.30          1.108        0.372
  WS02006234           JUNCTION        2.72          0.962        0.278
  WS02006235           JUNCTION        2.96          0.963        0.327
  WS02006238           JUNCTION        3.03          0.969        0.461
  WS02006240           JUNCTION        2.56          0.793        0.597
  WS02006242           JUNCTION        2.59          0.770        0.050
  WS02006243           JUNCTION        2.46          0.717        0.053
  WS02006245           JUNCTION        2.42          0.540        0.310
  WS02006247           JUNCTION        2.42          0.504        0.256
  WS02006248           JUNCTION        2.28          0.380        0.000
  WS02006249           JUNCTION        2.31          0.390        0.000
  WS02006239           JUNCTION        2.70          0.864        0.426
  WS02006251           JUNCTION        1.53          0.449        0.731
  WS02006252           JUNCTION        2.40          0.529        0.571
  WS02006253           JUNCTION        1.67          0.907        1.573
  WS02006256           JUNCTION        7.06          2.050        0.000
  WS02006228           JUNCTION        3.24          1.278        0.922
  WS02006229           JUNCTION        0.01          0.022        1.048
  HS02004817           JUNCTION        0.46          0.068        1.672
  YS02001745           JUNCTION        0.96          0.240        1.110
  YS02001748           JUNCTION        6.52          0.773        0.417
  YS02001751           JUNCTION        6.53          0.714        0.486
  YS02001754           JUNCTION        6.54          0.847        0.303
  YS02001762           JUNCTION        6.57          1.081        0.069
  YS02001765           JUNCTION        6.56          1.024        0.076
  YS02001767           JUNCTION        6.56          0.977        0.053
  YS02001770           JUNCTION        6.56          0.920        0.000
  YS02001774           JUNCTION        6.57          0.999        0.051
  YS02001779           JUNCTION        6.54          0.680        0.000
  YS02001882           JUNCTION        2.55          0.721        0.109
  YS02001884           JUNCTION        2.56          0.743        0.127
  YS02001759           JUNCTION        6.58          1.122        0.088
  YS02001887           JUNCTION        2.62          0.795        0.155
  YS02001890           JUNCTION        2.64          0.760        0.000
  YS02001898           JUNCTION        2.52          0.541        0.199
  YS02001901           JUNCTION        2.59          0.683        0.187
  YS02001904           JUNCTION        2.58          0.645        0.205
  YS02001907           JUNCTION        3.14          0.950        0.000
  YS02001910           JUNCTION        2.68          0.970        0.130
  YS02001915           JUNCTION        2.54          0.914        0.086
  YS02001918           JUNCTION        2.40          0.810        0.000
  YS02001619           JUNCTION        6.54          0.610        0.000
  YS02001629           JUNCTION        6.54          0.470        0.000
  YS02001641           JUNCTION        6.57          0.962        0.138
  YS02001644           JUNCTION        6.57          0.920        0.000
  YS02001652           JUNCTION        6.54          1.130        0.000
  YS02001655           JUNCTION        6.53          1.200        0.000
  YS02001920           JUNCTION        2.42          1.103        0.037
  YS02001923           JUNCTION        0.01          0.800        0.020
  YS02001926           JUNCTION        0.01          0.900        0.000
  YS02001929           JUNCTION        0.01          0.780        0.000
  YS02001658           JUNCTION        6.52          1.116        0.184
  YS02001661           JUNCTION        1.43          1.390        0.000
  YS02001622           JUNCTION        6.54          0.620        0.000
  YS02001633           JUNCTION        6.56          0.960        0.100
  YS02001649           JUNCTION        6.57          1.050        0.000
  YS02001757           JUNCTION        6.59          1.210        0.000
  YS02001895           JUNCTION        2.53          0.567        0.183
  YS02001625           JUNCTION        6.55          0.780        0.000
  YS02163301           JUNCTION        6.56          0.901        0.129
  YS02163601           JUNCTION        6.57          1.035        0.045
  YS02164001           JUNCTION        6.57          0.965        0.135
  YS02001647           JUNCTION        6.55          0.794        0.106
  YS02006553           JUNCTION        3.21          0.973        0.217
  YS02006561           JUNCTION        2.43          0.499        0.651
  YS02006556           JUNCTION        2.84          0.902        0.448
  YS02006558           JUNCTION        2.82          0.896        0.504
  YS02001783           JUNCTION        2.64          0.886        0.714
  YS02001784           JUNCTION        2.60          0.854        0.636
  YS02001786           JUNCTION        2.52          0.801        0.629
  YS02001788           JUNCTION        2.47          1.030        0.450
  YS02001790           JUNCTION        3.57          1.157        0.000
  YS02001791           JUNCTION        3.66          0.754        1.166
  YS02001793           JUNCTION        3.92          0.951        1.649
  
  
  *********************
  Node Flooding Summary
  *********************
  
  Flooding refers to all water that overflows a node, whether it ponds or not.
  --------------------------------------------------------------------------
                                                             Total   Maximum
                                 Maximum   Time of Max       Flood    Ponded
                        Hours       Rate    Occurrence      Volume     Depth
  Node                 Flooded       LPS   days hr:min    10^6 ltr    Meters
  --------------------------------------------------------------------------
  WS02006248              0.43    151.85      0  01:38       0.139     0.000
  WS02006249              1.64    356.57      0  01:32       0.544     0.000
  WS02006256              4.76    978.40      0  00:00      10.469     0.000
  YS02001770              1.11    263.16      0  03:01       0.455     0.000
  YS02001779              4.45    851.49      0  03:05       6.943     0.000
  YS02001890              1.74    298.72      0  01:56       1.275     0.000
  YS02001907              2.27   1197.09      0  03:01       6.359     0.000
  YS02001918              0.01     89.36      0  01:33       0.001     0.000
  YS02001619              0.01    104.17      0  01:27       0.000     0.000
  YS02001629              0.01    240.31      0  01:27       0.002     0.000
  YS02001644              6.09   1924.44      0  03:01      19.466     0.000
  YS02001652              0.01      5.78      0  01:35       0.000     0.000
  YS02001655              0.01     12.84      0  01:35       0.000     0.000
  YS02001926              0.01     22.18      0  01:33       0.000     0.000
  YS02001929              0.01    244.70      0  01:33       0.001     0.000
  YS02001661              0.01    114.41      0  01:35       0.000     0.000
  YS02001622              0.01     85.79      0  01:27       0.000     0.000
  YS02001649              1.23    600.72      0  03:01       1.677     0.000
  YS02001757              0.27    322.96      0  03:01       0.163     0.000
  YS02001625              2.99    801.20      0  03:01       4.634     0.000
  YS02001790              0.01    150.99      0  01:31       0.000     0.000
  JK-storage              0.94    695.53      0  01:32       0.892     0.000
  XR-storage              6.20   1300.79      0  03:01      10.747     0.000
  
  
  **********************
  Storage Volume Summary
  **********************
  
  --------------------------------------------------------------------------------------------------
                         Average     Avg  Evap Exfil       Maximum     Max    Time of Max    Maximum
                          Volume    Pcnt  Pcnt  Pcnt        Volume    Pcnt     Occurrence    Outflow
  Storage Unit           1000 m3    Full  Loss  Loss       1000 m3    Full    days hr:min        LPS
  --------------------------------------------------------------------------------------------------
  JK-storage               0.182      63     0     0         0.291     100       0  01:32     983.00
  CC-storage               3.465      22     0     0         4.127      26       0  02:55     400.00
  XR-storage               0.869      94     0     0         0.926     100       0  01:47     380.00
  
  
  ***********************
  Outfall Loading Summary
  ***********************
  
  ---------------------------------------------------------------------------------------------------------------------------------
                         Flow       Avg       Max       Total         Total         Total         Total         Total         Total
                         Freq      Flow      Flow      Volume           COD            SS            TN            TP         NH4-N
  Outfall Node           Pcnt       LPS       LPS    10^6 ltr            kg            kg            kg            kg            kg
  ---------------------------------------------------------------------------------------------------------------------------------
  WSC                   99.98    796.00   1380.41      22.023      2779.161      5086.388       135.657        15.075        79.604
  ---------------------------------------------------------------------------------------------------------------------------------
  System                99.98    796.00   1380.41      22.023      2779.161      5086.388       135.657        15.075        79.604
  
  
  ********************
  Link Flow Summary
  ********************
  
  -----------------------------------------------------------------------------
                                 Maximum  Time of Max   Maximum    Max/    Max/
                                  |Flow|   Occurrence   |Veloc|    Full    Full
  Link                 Type          LPS  days hr:min     m/sec    Flow   Depth
  -----------------------------------------------------------------------------
  WS02003066WSF200     CONDUIT    999.17     0  01:36      3.06    0.17    0.33
  WS02006287WS02006284 CONDUIT    934.56     0  01:35      2.63    0.43    0.46
  WS02006284WS02006280 CONDUIT    937.56     0  01:34      2.86    0.39    0.44
  WS02006280WS02006229 CONDUIT    963.19     0  01:34      4.53    0.21    0.75
  WS02006229WS02006228 CONDUIT    976.59     0  01:34      1.94    3.23    1.00
  WS02006256WS02006235 CONDUIT    288.60     0  00:00      4.23    3.05    1.00
  WS02006253WS02006251 CONDUIT    273.97     0  01:32      0.83    0.82    1.00
  WS02006252WS02006251 CONDUIT    404.51     0  07:40      3.22    1.48    1.00
  WS02006251WS02006249 CONDUIT    435.48     0  03:20      1.13    1.26    1.00
  WS02006249WS02006248 CONDUIT    380.18     0  05:30      1.18    2.08    1.00
  WS02006248WS02006247 CONDUIT    375.87     0  05:30      1.15    0.82    1.00
  WS02006247WS02006245 CONDUIT    371.57     0  05:30      1.13    2.95    1.00
  WS02006245WS02006243 CONDUIT    367.42     0  05:31      1.16    1.09    1.00
  WS02006243WS02006242 CONDUIT    362.50     0  05:31      1.05    0.77    1.00
  WS02006242WS02006240 CONDUIT    358.16     0  05:31      0.99    1.42    1.00
  WS02006240WS02006239 CONDUIT    353.25     0  05:31      1.03    1.11    1.00
  WS02006239WS02006238 CONDUIT    351.52     0  05:32      0.95    1.12    1.00
  WS02006238WS02006235 CONDUIT    351.15     0  05:32      1.46    0.78    1.00
  WS02006235WS02006234 CONDUIT    523.80     0  07:40      1.36    5.53    1.00
  WS02006234WS02006232 CONDUIT    523.67     0  07:40      1.39    1.06    1.00
  WS02006232WS02006231 CONDUIT    523.87     0  07:40      1.36    1.10    1.00
  WS02006231WS02006230 CONDUIT    523.48     0  07:40      1.36    7.94    1.00
  WS02006230WS02006229 CONDUIT    534.17     0  07:41      1.39   11.89    1.00
  WS02006228WS02006109 CONDUIT    976.63     0  01:34      1.94    4.27    1.00
  WS02006116WS02004401 CONDUIT   1016.04     0  01:34      1.29    1.40    1.00
  WS02006115WS02006116 CONDUIT   1015.85     0  01:34      1.29    1.30    1.00
  WS02006113WS02006111 CONDUIT    977.90     0  01:34      2.65    1.17    1.00
  WS02006112WS02006115 CONDUIT   1016.03     0  01:34      1.29    0.60    1.00
  WS02006111WS02006112 CONDUIT    977.90     0  01:34      1.95    0.46    1.00
  WS02006110WS02006113 CONDUIT    977.89     0  01:34      1.95    0.89    1.00
  WS02006109WS02006110 CONDUIT    977.86     0  01:34      1.95    1.88    1.00
  WS02004411WS02004412 CONDUIT    992.37     0  01:36      1.29    1.41    0.96
  WS02004401WS02004402 CONDUIT   1015.96     0  01:34      1.29    1.22    1.00
  WS02004413WS02003067 CONDUIT    994.68     0  01:35      1.62    0.43    0.73
  WS02004412WS02004413 CONDUIT    993.93     0  01:35      1.28    0.67    0.97
  WS02004410WS02004411 CONDUIT    991.82     0  01:36      1.27    1.35    0.99
  WS02004409WS02004410 CONDUIT   1006.61     0  01:35      1.29    1.30    1.00
  WS02004407WS02004409 CONDUIT   1016.00     0  01:34      1.87    0.36    0.71
  WS02004406WS02004407 CONDUIT   1019.67     0  01:34      1.72    0.46    0.71
  WS02004405WS02004406 CONDUIT   1018.83     0  01:34      1.30    2.01    1.00
  WS02004404WS02004405 CONDUIT   1018.32     0  01:34      1.30    9.98    1.00
  WS02004403WS02004404 CONDUIT   1017.53     0  01:34      1.30    0.74    1.00
  WS02004402WS02004403 CONDUIT   1016.69     0  01:34      1.29    1.46    1.00
  WS02004139WS02001211 CONDUIT    382.71     0  03:15      0.90    0.48    0.65
  WS02004138WS02004139 CONDUIT    396.19     0  00:00      3.65    0.08    0.47
  WS02003067WS02003066 CONDUIT    998.11     0  01:35      1.71    0.32    0.51
  WS02001213WS02003059 CONDUIT    397.66     0  03:14      0.88    0.66    0.88
  WS02001212WS02001213 CONDUIT    395.00     0  03:15      1.32    0.61    0.57
  WS02001211WS02001212 CONDUIT    392.70     0  03:15      0.78    0.30    0.72
  WS02003072WS02003073 CONDUIT   1378.25     0  01:44      1.99    2.98    0.59
  WS02003069WS02003072 CONDUIT   1378.32     0  01:43      1.84    0.66    0.63
  WS02003060WS02003069 CONDUIT   1377.78     0  01:43      2.04    0.54    0.58
  WS02003059WS02003060 CONDUIT    401.62     0  03:34      0.95    0.26    0.78
  HS02004901HS02004770 CONDUIT     47.75     0  01:32      0.11    0.18    0.61
  HS02004876HS02004881 CONDUIT    177.42     0  01:33      1.41    1.89    0.20
  HS02004870HS02004876 CONDUIT    143.30     0  01:35      0.95    0.10    0.22
  HS02004842HS02004848 CONDUIT     21.86     0  01:49      0.09    0.01    0.35
  HS02004837HS02004842 CONDUIT     22.38     0  01:49      0.42    0.01    0.37
  HS02004830HS02004837 CONDUIT     81.97     0  01:35      0.70    0.08    0.18
  HS02004824HS02004830 CONDUIT     82.88     0  01:37      0.63    0.11    0.25
  HS02004817HS02004824 CONDUIT    166.02     0  01:39      0.37    0.07    0.64
  HS02004770HS02004777 CONDUIT    244.63     0  01:32      0.57    0.45    0.62
  HS02004799HS02004480 CONDUIT    605.42     0  01:33      1.21    0.76    0.71
  HS02004792HS02004799 CONDUIT    554.25     0  01:33      1.36    0.34    0.58
  HS02004788HS02004792 CONDUIT    319.85     0  01:34      1.40    0.21    0.33
  HS02004785HS02004788 CONDUIT    244.45     0  01:33      1.02    1.84    0.34
  HS02004777HS02004785 CONDUIT    244.32     0  01:33      0.67    0.30    0.52
  HS02004480HS02004478 CONDUIT    712.97     0  01:33      1.74    3.00    0.59
  HS02004479HS02004480 CONDUIT    107.66     0  01:33      0.45    0.10    0.68
  HS02004862HS02004870 CONDUIT    109.56     0  01:36      0.90    0.12    0.17
  HS02004848HS02004852 CONDUIT     51.63     0  01:36      0.58    0.06    0.13
  HS02004856HS02004862 CONDUIT     76.86     0  01:35      0.67    0.08    0.16
  HS02004852HS02004856 CONDUIT     51.73     0  01:36      0.39    0.06    0.19
  HS02004802HS02004478 CONDUIT    227.65     0  01:38      0.57    0.20    0.58
  HS02004478WS02006287 CONDUIT    934.65     0  01:35      2.37    0.26    0.44
  HS02004817HS02004807 CONDUIT    166.70     0  01:39      0.30    0.10    0.81
  HS02004807HS02004802 CONDUIT    226.45     0  01:37      0.51    0.43    0.64
  YS02001759YS02001757 CONDUIT    898.89     0  01:41      1.14    0.64    1.00
  YS02001762YS02001759 CONDUIT    370.56     0  01:35      0.47    0.43    1.00
  YS02001765YS02001762 CONDUIT    370.23     0  01:35      0.47    0.35    1.00
  YS02001770YS02001767 CONDUIT    369.35     0  01:35      0.50    1.46    1.00
  YS02001774YS02001770 CONDUIT    852.13     0  03:06      1.08    0.54    1.00
  YS02001779YS02001774 CONDUIT    851.78     0  03:05      1.08    0.43    1.00
  YS02001649YS02001757 CONDUIT    891.01     0  01:40      1.13    0.54    1.00
  YS02001767YS02001765 CONDUIT    369.96     0  01:35      0.48    0.47    1.00
  YS02006561YS02001783 CONDUIT   1023.67     0  01:31      2.27    0.53    1.00
  YS02001783YS02001784 CONDUIT   1023.74     0  01:31      2.04    1.41    1.00
  YS02001784YS02001785 CONDUIT   1024.58     0  01:31      2.07    2.38    1.00
  YS02001788YS02001790 CONDUIT    983.97     0  01:50      2.45    0.73    1.00
  YS02001790YS02001791 CONDUIT    984.09     0  01:58      2.98    1.07    1.00
  YS02001791YS02001793 CONDUIT    984.35     0  01:52      5.81    0.42    1.00
  YS02001910YS02001907 CONDUIT    911.31     0  03:01      1.16    0.51    1.00
  YS02001786YS02001788 CONDUIT   1003.90     0  01:31      2.31    1.93    1.00
  YS02001915YS02001910 CONDUIT    911.13     0  03:01      1.16    0.45    1.00
  YS02001918YS02001915 CONDUIT    432.44     0  01:32      0.57    0.24    1.00
  YS02001923YS02001920 CONDUIT    401.21     0  01:33      0.91    0.18    1.00
  YS02001926YS02001923 CONDUIT    463.64     0  01:33      1.00    0.66    1.00
  YS02001929YS02001926 CONDUIT    352.40     0  03:01      1.07    0.17    1.00
  YS02001920YS02001918 CONDUIT    401.55     0  01:34      0.85    0.39    1.00
  YS02001629YS02163301 CONDUIT    279.76     0  01:26      0.36    0.34    1.00
  YS02001619YS02001622 CONDUIT    574.85     0  03:01      0.86    0.85    1.00
  YS02001622YS02001625 CONDUIT    575.03     0  03:01      0.73    0.31    1.00
  YS02001625YS02001629 CONDUIT    260.10     0  01:26      0.40    0.12    1.00
  YS02163301YS02001633 CONDUIT    279.14     0  01:26      0.36    0.26    1.00
  YS02163601YS02164001 CONDUIT    454.53     0  01:28      0.58    0.40    1.00
  YS02164001YS02001641 CONDUIT    456.22     0  01:28      0.58    0.62    1.00
  YS02001641YS02001644 CONDUIT    457.69     0  01:28      0.58    1.48    1.00
  YS02001647YS02001649 CONDUIT    846.70     0  02:38      1.08    0.45    1.00
  YS02006553YS02006556 CONDUIT    731.86     0  04:02      0.93    0.63    1.00
  YS02006556YS02006558 CONDUIT    732.10     0  04:02      0.93    0.58    1.00
  YSB6556YSB1171       CONDUIT     59.53     0  01:34      0.17    0.06    0.88
  YS02001907YS02006553 CONDUIT    731.73     0  04:02      0.81    0.86    1.00
  YS02006558YS02006561 CONDUIT   1060.99     0  01:32      3.76    2.35    1.00
  YS02001633YS02163601 CONDUIT    454.19     0  01:28      0.58    0.48    1.00
  YS02001644YS02001647 CONDUIT    846.70     0  02:38      1.08    0.50    1.00
  YS02001745YS02001748 CONDUIT    667.49     0  03:01      1.86    0.26    1.00
  YS02001748YS02001751 CONDUIT    667.71     0  03:01      1.39    0.34    1.00
  YS02001751YS02001754 CONDUIT    667.89     0  03:01      1.15    0.32    1.00
  YS02001754YS02001757 CONDUIT    668.26     0  03:01      0.85    0.27    1.00
  YS02001882YS02001884 CONDUIT     35.86     0  01:30      0.22    0.04    1.00
  YS02001884YS02001887 CONDUIT     62.42     0  01:29      0.16    0.08    1.00
  YS02001890YS02001895 CONDUIT    594.51     0  01:32      0.76    0.28    1.00
  YS02001895YS02001898 CONDUIT    598.44     0  01:32      0.76    1.04    1.00
  YS02001898YS02001901 CONDUIT    603.23     0  01:32      0.77    0.39    1.00
  YS02001901YS02001904 CONDUIT    604.49     0  01:32      0.77    0.94    1.00
  YS02001904YS02001907 CONDUIT    605.14     0  01:32      0.77    0.21    1.00
  YS02001887YS02001890 CONDUIT    815.85     0  01:57      1.04    1.40    1.00
  YS02001652YS02001649 CONDUIT    639.61     0  03:01      0.84    0.32    1.00
  YS02001655YS02001652 CONDUIT    639.57     0  03:01      1.25    0.31    1.00
  YS02001658YS02001655 CONDUIT    639.36     0  03:01      1.61    0.27    1.00
  YS02001661YS02001658 CONDUIT    639.27     0  03:01      1.99    0.25    1.00
  YS02001664YS02001661 CONDUIT    800.06     0  01:41      1.90    0.25    0.85
  YSB1154YSB6556       CONDUIT     59.44     0  01:33      0.17    0.11    0.84
  YSB1174YSB1171       CONDUIT     50.32     0  01:30      0.14    0.08    0.92
  YSB1171HS02004479    CONDUIT    107.71     0  01:33      0.54    0.07    0.78
  HS02004881HS02006253 CONDUIT    270.49     0  01:32      2.77    0.05    0.56
  YS02001793JiankangQianchi CONDUIT   1020.29     0  01:30     16.71    0.08    1.00
  YS02001757CaochengTiaoxuchi CONDUIT   2182.61     0  01:41      3.80    0.96    1.00
  WSF200WS02003060     CONDUIT   1002.61     0  01:36      2.07    0.22    0.46
  1                    CONDUIT   1380.41     0  01:43      3.62    0.48    0.49
  CC-Pump-1            PUMP       200.00     0  02:10              1.00
  CC-Pump-2            PUMP       200.00     0  07:40              1.00
  JK-Pump-1            PUMP       300.00     0  00:00              1.00
  JK-Pump-2            PUMP       683.00     0  00:00              1.00
  XR-Pump-1            PUMP        95.00     0  00:00              1.00
  XR-Pump-2            PUMP        95.00     0  00:00              1.00
  XR-Pump-3            PUMP        95.00     0  00:00              1.00
  XR-Pump-4            PUMP        95.00     0  00:00              1.00
  
  
  ***************************
  Flow Classification Summary
  ***************************
  
  -------------------------------------------------------------------------------------
                      Adjusted    ---------- Fraction of Time in Flow Class ---------- 
                       /Actual         Up    Down  Sub   Sup   Up    Down  Norm  Inlet 
  Conduit               Length    Dry  Dry   Dry   Crit  Crit  Crit  Crit  Ltd   Ctrl  
  -------------------------------------------------------------------------------------
  WS02003066WSF200        1.00   0.01  0.06  0.00  0.00  0.93  0.00  0.00  0.49  0.00
  WS02006287WS02006284    1.00   0.03  0.01  0.00  0.61  0.35  0.00  0.00  0.62  0.00
  WS02006284WS02006280    1.00   0.04  0.00  0.00  0.00  0.00  0.00  0.96  0.00  0.00
  WS02006280WS02006229    1.00   0.04  0.00  0.00  0.05  0.12  0.00  0.79  0.05  0.00
  WS02006229WS02006228    1.00   0.00  0.00  0.00  1.00  0.00  0.00  0.00  0.00  0.00
  WS02006256WS02006235    1.00   0.00  0.00  0.00  1.00  0.00  0.00  0.00  0.00  0.00
  WS02006253WS02006251    1.00   0.01  0.02  0.00  0.96  0.00  0.01  0.00  0.00  0.00
  WS02006252WS02006251    1.00   0.08  0.00  0.00  0.22  0.00  0.70  0.00  0.00  0.00
  WS02006251WS02006249    1.00   0.00  0.00  0.00  1.00  0.00  0.00  0.00  0.23  0.00
  WS02006249WS02006248    1.00   0.00  0.01  0.00  0.91  0.00  0.08  0.00  0.00  0.00
  WS02006248WS02006247    1.00   0.01  0.00  0.00  0.98  0.00  0.00  0.02  0.08  0.00
  WS02006247WS02006245    1.00   0.01  0.00  0.00  0.95  0.00  0.00  0.04  0.00  0.00
  WS02006245WS02006243    1.00   0.00  0.00  0.00  0.94  0.00  0.00  0.06  0.01  0.00
  WS02006243WS02006242    1.00   0.00  0.00  0.00  0.99  0.00  0.00  0.00  0.22  0.00
  WS02006242WS02006240    1.00   0.00  0.00  0.00  0.99  0.00  0.01  0.00  0.00  0.00
  WS02006240WS02006239    1.00   0.00  0.00  0.00  0.95  0.00  0.00  0.05  0.02  0.00
  WS02006239WS02006238    1.00   0.00  0.00  0.00  1.00  0.00  0.00  0.00  0.11  0.00
  WS02006238WS02006235    1.00   0.00  0.00  0.00  1.00  0.00  0.00  0.00  0.00  0.00
  WS02006235WS02006234    1.00   0.00  0.00  0.00  0.97  0.00  0.03  0.00  0.00  0.00
  WS02006234WS02006232    1.00   0.00  0.00  0.00  1.00  0.00  0.00  0.00  0.06  0.00
  WS02006232WS02006231    1.00   0.00  0.00  0.00  1.00  0.00  0.00  0.00  0.00  0.00
  WS02006231WS02006230    1.00   0.00  0.00  0.00  0.62  0.00  0.38  0.00  0.00  0.00
  WS02006230WS02006229    1.00   0.00  0.00  0.00  1.00  0.00  0.00  0.00  0.01  0.00
  WS02006228WS02006109    1.00   0.00  0.00  0.00  1.00  0.00  0.00  0.00  0.00  0.00
  WS02006116WS02004401    1.00   0.01  0.00  0.00  0.99  0.00  0.00  0.00  0.01  0.00
  WS02006115WS02006116    1.00   0.01  0.00  0.00  0.97  0.00  0.00  0.02  0.01  0.00
  WS02006113WS02006111    1.00   0.01  0.00  0.00  0.19  0.80  0.00  0.00  0.14  0.00
  WS02006112WS02006115    1.00   0.01  0.00  0.00  0.99  0.00  0.00  0.00  0.00  0.00
  WS02006111WS02006112    1.00   0.01  0.00  0.00  0.99  0.00  0.00  0.00  0.73  0.00
  WS02006110WS02006113    1.00   0.00  0.00  0.00  0.99  0.00  0.00  0.00  0.00  0.00
  WS02006109WS02006110    1.00   0.00  0.00  0.00  0.99  0.00  0.00  0.00  0.00  0.00
  WS02004411WS02004412    1.00   0.05  0.00  0.00  0.95  0.00  0.00  0.00  0.00  0.00
  WS02004401WS02004402    1.00   0.01  0.00  0.00  0.99  0.00  0.00  0.00  0.01  0.00
  WS02004413WS02003067    1.00   0.06  0.01  0.00  0.00  0.00  0.94  0.00  0.00  0.00
  WS02004412WS02004413    1.00   0.05  0.00  0.00  0.94  0.00  0.00  0.00  0.00  0.00
  WS02004410WS02004411    1.00   0.05  0.00  0.00  0.95  0.00  0.00  0.00  0.00  0.00
  WS02004409WS02004410    1.00   0.05  0.00  0.00  0.95  0.00  0.00  0.00  0.00  0.00
  WS02004407WS02004409    1.00   0.05  0.00  0.00  0.94  0.01  0.00  0.00  0.81  0.00
  WS02004406WS02004407    1.00   0.00  0.05  0.00  0.95  0.00  0.00  0.00  0.00  0.00
  WS02004405WS02004406    1.00   0.00  0.00  0.00  1.00  0.00  0.00  0.00  0.02  0.00
  WS02004404WS02004405    1.00   0.00  0.00  0.00  1.00  0.00  0.00  0.00  0.00  0.00
  WS02004403WS02004404    1.00   0.00  0.01  0.00  0.99  0.00  0.00  0.00  0.02  0.00
  WS02004402WS02004403    1.00   0.01  0.00  0.00  0.99  0.00  0.00  0.00  0.00  0.00
  WS02004139WS02001211    1.00   0.00  0.00  0.00  1.00  0.00  0.00  0.00  0.00  0.00
  WS02004138WS02004139    1.00   0.00  0.00  0.00  1.00  0.00  0.00  0.00  1.00  0.00
  WS02003067WS02003066    1.00   0.06  0.00  0.00  0.93  0.00  0.00  0.00  0.00  0.00
  WS02001213WS02003059    1.00   0.00  0.00  0.00  1.00  0.00  0.00  0.00  0.00  0.00
  WS02001212WS02001213    1.00   0.00  0.00  0.00  0.92  0.00  0.07  0.00  0.00  0.00
  WS02001211WS02001212    1.00   0.00  0.00  0.00  1.00  0.00  0.00  0.00  0.00  0.00
  WS02003072WS02003073    1.00   0.00  0.00  0.00  0.00  0.00  0.00  1.00  0.00  0.00
  WS02003069WS02003072    1.00   0.00  0.00  0.00  1.00  0.00  0.00  0.00  0.09  0.00
  WS02003060WS02003069    1.00   0.00  0.00  0.00  0.99  0.01  0.00  0.00  0.06  0.00
  WS02003059WS02003060    1.00   0.00  0.00  0.00  1.00  0.00  0.00  0.00  0.00  0.00
  HS02004901HS02004770    1.00   0.04  0.00  0.00  0.96  0.00  0.00  0.00  0.00  0.00
  HS02004876HS02004881    1.00   0.01  0.00  0.00  0.78  0.21  0.00  0.00  0.00  0.00
  HS02004870HS02004876    1.00   0.00  0.00  0.00  1.00  0.00  0.00  0.00  0.95  0.00
  HS02004842HS02004848    1.00   0.00  0.04  0.00  0.96  0.00  0.00  0.00  0.54  0.00
  HS02004837HS02004842    1.00   0.00  0.00  0.00  1.00  0.00  0.00  0.00  0.11  0.00
  HS02004830HS02004837    1.00   0.00  0.00  0.00  1.00  0.00  0.00  0.00  0.99  0.00
  HS02004824HS02004830    1.00   0.00  0.00  0.00  1.00  0.00  0.00  0.00  0.03  0.00
  HS02004817HS02004824    1.00   0.00  0.00  0.00  1.00  0.00  0.00  0.00  0.87  0.00
  HS02004770HS02004777    1.00   0.00  0.04  0.00  0.96  0.00  0.00  0.00  0.01  0.00
  HS02004799HS02004480    1.00   0.00  0.01  0.00  0.96  0.00  0.03  0.00  0.00  0.00
  HS02004792HS02004799    1.00   0.00  0.00  0.00  1.00  0.00  0.00  0.00  0.98  0.00
  HS02004788HS02004792    1.00   0.00  0.00  0.00  1.00  0.00  0.00  0.00  0.98  0.00
  HS02004785HS02004788    1.00   0.00  0.00  0.00  1.00  0.00  0.00  0.00  0.00  0.00
  HS02004777HS02004785    1.00   0.00  0.00  0.00  1.00  0.00  0.00  0.00  0.10  0.00
  HS02004480HS02004478    1.00   0.04  0.00  0.00  0.67  0.00  0.00  0.29  0.00  0.00
  HS02004479HS02004480    1.00   0.01  0.00  0.00  0.99  0.00  0.00  0.00  0.10  0.00
  HS02004862HS02004870    1.00   0.00  0.00  0.00  1.00  0.00  0.00  0.00  0.02  0.00
  HS02004848HS02004852    1.00   0.04  0.00  0.00  0.96  0.00  0.00  0.00  0.83  0.00
  HS02004856HS02004862    1.00   0.00  0.04  0.00  0.96  0.00  0.00  0.00  0.85  0.00
  HS02004852HS02004856    1.00   0.04  0.00  0.00  0.96  0.00  0.00  0.00  0.69  0.00
  HS02004802HS02004478    1.00   0.04  0.00  0.00  0.96  0.00  0.00  0.00  0.01  0.00
  HS02004478WS02006287    1.00   0.04  0.00  0.00  0.71  0.25  0.00  0.00  0.59  0.00
  HS02004817HS02004807    1.00   0.00  0.04  0.00  0.96  0.00  0.00  0.00  0.01  0.00
  HS02004807HS02004802    1.00   0.04  0.00  0.00  0.96  0.00  0.00  0.00  0.00  0.00
  YS02001759YS02001757    1.00   0.00  0.00  0.00  1.00  0.00  0.00  0.00  0.14  0.00
  YS02001762YS02001759    1.00   0.00  0.00  0.00  1.00  0.00  0.00  0.00  0.01  0.00
  YS02001765YS02001762    1.00   0.00  0.00  0.00  1.00  0.00  0.00  0.00  0.13  0.00
  YS02001770YS02001767    1.00   0.00  0.00  0.00  1.00  0.00  0.00  0.00  0.00  0.00
  YS02001774YS02001770    1.00   0.00  0.04  0.00  0.96  0.00  0.00  0.00  0.01  0.00
  YS02001779YS02001774    1.00   0.00  0.00  0.00  1.00  0.00  0.00  0.00  0.15  0.00
  YS02001649YS02001757    1.00   0.00  0.00  0.00  1.00  0.00  0.00  0.00  0.14  0.00
  YS02001767YS02001765    1.00   0.00  0.00  0.00  1.00  0.00  0.00  0.00  0.00  0.00
  YS02006561YS02001783    1.00   0.04  0.00  0.00  0.51  0.45  0.00  0.00  0.36  0.00
  YS02001783YS02001784    1.00   0.00  0.04  0.00  0.96  0.00  0.00  0.00  0.00  0.00
  YS02001784YS02001785    1.00   0.00  0.00  0.00  1.00  0.00  0.00  0.00  0.14  0.00
  YS02001788YS02001790    1.00   0.00  0.00  0.00  0.56  0.44  0.00  0.00  0.27  0.00
  YS02001790YS02001791    1.00   0.00  0.00  0.00  0.53  0.47  0.00  0.00  0.32  0.00
  YS02001791YS02001793    1.00   0.00  0.00  0.00  0.56  0.44  0.00  0.00  0.02  0.00
  YS02001910YS02001907    1.00   0.00  0.00  0.00  0.99  0.00  0.00  0.01  0.11  0.00
  YS02001786YS02001788    1.00   0.00  0.00  0.00  0.54  0.46  0.00  0.00  0.00  0.00
  YS02001915YS02001910    1.00   0.00  0.00  0.00  0.99  0.01  0.00  0.00  0.12  0.00
  YS02001918YS02001915    1.00   0.00  0.00  0.00  0.99  0.00  0.00  0.00  0.45  0.00
  YS02001923YS02001920    1.00   0.00  0.00  0.00  1.00  0.00  0.00  0.00  0.66  0.00
  YS02001926YS02001923    1.00   0.00  0.02  0.00  0.30  0.00  0.68  0.00  0.00  0.00
  YS02001929YS02001926    1.00   0.00  0.04  0.00  0.96  0.00  0.00  0.00  0.56  0.00
  YS02001920YS02001918    1.00   0.00  0.00  0.00  1.00  0.00  0.00  0.00  0.00  0.00
  YS02001629YS02163301    1.00   0.04  0.00  0.00  0.96  0.00  0.00  0.00  0.00  0.00
  YS02001619YS02001622    1.00   0.04  0.00  0.00  0.96  0.00  0.00  0.00  0.00  0.00
  YS02001622YS02001625    1.00   0.04  0.00  0.00  0.96  0.00  0.00  0.00  0.02  0.00
  YS02001625YS02001629    1.00   0.04  0.01  0.00  0.95  0.00  0.01  0.00  0.00  0.00
  YS02163301YS02001633    1.00   0.00  0.04  0.00  0.96  0.00  0.00  0.00  0.00  0.00
  YS02163601YS02164001    1.00   0.00  0.02  0.00  0.98  0.00  0.00  0.00  0.00  0.00
  YS02164001YS02001641    1.00   0.00  0.02  0.00  0.98  0.00  0.00  0.00  0.05  0.00
  YS02001641YS02001644    1.00   0.00  0.00  0.00  1.00  0.00  0.00  0.00  0.00  0.00
  YS02001647YS02001649    1.00   0.00  0.04  0.00  0.96  0.00  0.00  0.00  0.01  0.00
  YS02006553YS02006556    1.00   0.01  0.00  0.00  0.99  0.00  0.00  0.00  0.03  0.00
  YS02006556YS02006558    1.00   0.00  0.00  0.00  1.00  0.00  0.00  0.00  0.00  0.00
  YSB6556YSB1171          1.00   0.01  0.02  0.00  0.97  0.00  0.00  0.00  0.00  0.00
  YS02001907YS02006553    1.00   0.00  0.01  0.00  0.99  0.00  0.00  0.00  0.00  0.00
  YS02006558YS02006561    1.00   0.04  0.00  0.00  0.30  0.66  0.00  0.00  0.36  0.00
  YS02001633YS02163601    1.00   0.00  0.00  0.00  1.00  0.00  0.00  0.00  0.14  0.00
  YS02001644YS02001647    1.00   0.00  0.04  0.00  0.96  0.00  0.00  0.00  0.00  0.00
  YS02001745YS02001748    1.00   0.00  0.00  0.00  0.94  0.00  0.00  0.06  0.00  0.00
  YS02001748YS02001751    1.00   0.00  0.00  0.00  0.98  0.02  0.00  0.00  0.13  0.00
  YS02001751YS02001754    1.00   0.00  0.00  0.00  0.95  0.00  0.00  0.05  0.01  0.00
  YS02001754YS02001757    1.00   0.00  0.00  0.00  1.00  0.00  0.00  0.00  0.15  0.00
  YS02001882YS02001884    1.00   0.04  0.00  0.00  0.96  0.00  0.00  0.00  0.00  0.00
  YS02001884YS02001887    1.00   0.02  0.01  0.00  0.97  0.00  0.00  0.00  0.00  0.00
  YS02001890YS02001895    1.00   0.00  0.04  0.00  0.96  0.00  0.00  0.00  0.00  0.00
  YS02001895YS02001898    1.00   0.04  0.00  0.00  0.95  0.00  0.01  0.00  0.00  0.00
  YS02001898YS02001901    1.00   0.04  0.00  0.00  0.96  0.00  0.00  0.00  0.00  0.00
  YS02001901YS02001904    1.00   0.04  0.00  0.00  0.96  0.00  0.00  0.00  0.00  0.00
  YS02001904YS02001907    1.00   0.00  0.04  0.00  0.96  0.00  0.00  0.00  0.00  0.00
  YS02001887YS02001890    1.00   0.00  0.00  0.00  0.99  0.00  0.01  0.00  0.00  0.00
  YS02001652YS02001649    1.00   0.00  0.00  0.00  1.00  0.00  0.00  0.00  0.14  0.00
  YS02001655YS02001652    1.00   0.00  0.00  0.00  0.95  0.00  0.00  0.05  0.01  0.00
  YS02001658YS02001655    1.00   0.00  0.04  0.00  0.94  0.02  0.00  0.00  0.01  0.00
  YS02001661YS02001658    1.00   0.04  0.00  0.00  0.94  0.03  0.00  0.00  0.00  0.00
  YS02001664YS02001661    1.00   0.04  0.00  0.00  0.94  0.03  0.00  0.00  0.06  0.00
  YSB1154YSB6556          1.00   0.03  0.00  0.00  0.97  0.00  0.00  0.00  0.01  0.00
  YSB1174YSB1171          1.00   0.02  0.01  0.00  0.97  0.00  0.00  0.00  0.00  0.00
  YSB1171HS02004479       1.00   0.01  0.00  0.00  0.98  0.00  0.00  0.00  0.09  0.00
  HS02004881HS02006253    1.00   0.02  0.00  0.00  0.62  0.02  0.00  0.34  0.51  0.00
  YS02001793JiankangQianchi    1.00   0.00  0.00  0.00  0.75  0.25  0.00  0.00  0.26  0.00
  YS02001757CaochengTiaoxuchi    1.00   0.00  0.05  0.00  0.92  0.03  0.00  0.00  0.00  0.00
  WSF200WS02003060        1.00   0.00  0.01  0.00  0.99  0.01  0.00  0.00  0.50  0.00
  1                       1.00   0.00  0.00  0.00  0.00  1.00  0.00  0.00  0.52  0.00
  
  
  *************************
  Conduit Surcharge Summary
  *************************
  
  ----------------------------------------------------------------------------
                                                           Hours        Hours 
                         --------- Hours Full --------   Above Full   Capacity
  Conduit                Both Ends  Upstream  Dnstream   Normal Flow   Limited
  ----------------------------------------------------------------------------
  WS02006280WS02006229        0.01      0.01      0.01      0.01         0.01
  WS02006229WS02006228        3.24      3.36      3.24      4.82         3.24
  WS02006256WS02006235        6.02      6.03      7.06      4.93         0.01
[...]
  YS02001649YS02001757        6.57      6.57      6.59      0.01         0.01
  YS02001767YS02001765        6.56      6.56      6.56      0.01         0.01
  YS02006561YS02001783        2.43      2.43      2.64      0.01         0.01
  YS02001783YS02001784        2.60      2.64      2.60      2.89         2.60
  YS02001784YS02001785        2.52      2.60      2.52      3.60         2.52
  YS02001788YS02001790        2.47      2.47      3.56      0.01         0.01
  YS02001790YS02001791        3.56      3.56      3.66      2.57         2.55
  YS02001791YS02001793        3.66      3.66      4.01      0.01         0.01
  YS02001910YS02001907        2.68      2.68      3.14      0.01         0.01
  YS02001786YS02001788        2.47      2.52      2.47      3.26         2.47
  YS02001915YS02001910        2.54      2.54      2.68      0.01         0.01
  YS02001918YS02001915        2.40      2.40      2.54      0.01         0.01
  YS02001923YS02001920        2.25      2.25      2.42      0.01         0.01
  YS02001926YS02001923        0.01      0.01      0.01      0.01         0.01
  YS02001929YS02001926        0.01      0.01      0.01      0.01         0.01
  YS02001920YS02001918        2.40      2.40      2.42      0.01         0.01
  YS02001629YS02163301        6.55      6.55      6.56      0.01         0.01
  YS02001619YS02001622        6.54      6.54      6.54      0.01         0.03
  YS02001622YS02001625        6.54      6.54      6.55      0.01         0.01
  YS02001625YS02001629        6.54      6.54      6.55      0.01         0.01
  YS02163301YS02001633        6.56      6.56      6.57      0.01         0.01
  YS02163601YS02164001        6.57      6.57      6.57      0.01         0.01
  YS02164001YS02001641        6.57      6.57      6.57      0.01         0.02
  YS02001641YS02001644        6.57      6.57      6.57      3.17         3.25
  YS02001647YS02001649        6.55      6.55      6.57      0.01         0.01
  YS02006553YS02006556        2.84      2.84      3.21      0.01         0.01
  YS02006556YS02006558        2.93      2.93      3.27      0.01         0.01
  YSB6556YSB1171              0.01      0.01      0.58      0.01         0.01
  YS02001907YS02006553        3.63      3.63      3.82      0.01         0.01
  YS02006558YS02006561        2.49      2.82      2.49      3.50         2.49
  YS02001633YS02163601        6.56      6.56      6.57      0.01         0.01
  YS02001644YS02001647        6.55      6.55      6.57      0.01         0.01
  YS02001745YS02001748        0.96      0.96      6.52      0.01         0.01
  YS02001748YS02001751        6.52      6.52      6.53      0.01         0.01
  YS02001751YS02001754        6.53      6.53      6.54      0.01         0.01
  YS02001754YS02001757        6.55      6.55      6.59      0.01         0.01
  YS02001882YS02001884        2.55      2.55      2.56      0.01         0.01
  YS02001884YS02001887        2.60      2.60      2.62      0.01         0.01
  YS02001890YS02001895        2.53      2.53      2.69      0.01         0.01
  YS02001895YS02001898        2.52      2.52      2.53      0.01         0.01
  YS02001898YS02001901        2.53      2.53      2.59      0.01         0.01
  YS02001901YS02001904        2.58      2.58      2.59      0.01         0.01
  YS02001904YS02001907        2.58      2.58      3.23      0.01         0.01
  YS02001887YS02001890        2.64      2.64      2.66      1.66         0.01
  YS02001652YS02001649        6.54      6.54      6.57      0.01         0.01
  YS02001655YS02001652        6.53      6.53      6.54      0.01         0.01
  YS02001658YS02001655        6.52      6.52      6.53      0.01         0.01
  YS02001661YS02001658        1.42      1.42      6.52      0.01         0.01
  YS02001664YS02001661        0.01      0.01      2.69      0.01         0.01
  YSB1174YSB1171              0.01      0.01      0.32      0.01         0.01
  HS02004881HS02006253        0.01      0.01      1.67      0.01         0.01
  YS02001793JiankangQianchi        3.92      3.92      5.09      0.01         0.01
  YS02001757CaochengTiaoxuchi        6.15      6.15      6.59      0.01         0.01
  
  
  ***************
  Pumping Summary
  ***************
  
  ---------------------------------------------------------------------------------------------------------
                                                  Min       Avg       Max     Total     Power    % Time Off
                        Percent   Number of      Flow      Flow      Flow    Volume     Usage    Pump Curve
  Pump                 Utilized   Start-Ups       LPS       LPS       LPS  10^6 ltr     Kw-hr    Low   High
  ---------------------------------------------------------------------------------------------------------
  CC-Pump-1               56.22           8      0.00    134.75    200.00     2.100      1.84    0.0    0.0
  CC-Pump-2               22.91           4      0.00    104.08    200.00     0.780      0.96    0.0    0.0
  JK-Pump-1               66.66           4      0.00    257.14    300.00     4.727     56.84    0.0    0.0
  JK-Pump-2               64.59           4      0.00    509.64    683.00     9.449    105.43    0.0   97.9
  XR-Pump-1              100.00           1      0.00     95.00     95.00     2.736     21.18    0.0    0.0
  XR-Pump-2              100.00           1      0.00     92.93     95.00     2.622     18.71    0.0    0.0
  XR-Pump-3               97.92           2      0.00     92.92     95.00     2.565     17.48    0.0    0.0
  XR-Pump-4               97.92           2      0.00     92.92     95.00     2.565     17.48    0.0    0.0
  
  
  ***************************
  Link Pollutant Load Summary
  ***************************
  
  ------------------------------------------------------------------------------------------
                                 COD            SS            TN            TP         NH4-N
  Link                            kg            kg            kg            kg            kg
  ------------------------------------------------------------------------------------------
  WS02003066WSF200          1313.267      2568.400        31.127         2.583        15.930
  WS02006287WS02006284       663.983      1310.625        17.369         1.543         9.091
  WS02006284WS02006280       664.447      1311.349        17.417         1.549         9.121
  WS02006280WS02006229       664.540      1311.636        17.416         1.549         9.120
  WS02006229WS02006228      1305.959      2555.288        30.407         2.485        15.481
  WS02006256WS02006235       301.843       576.678         6.420         0.480         3.192
  WS02006253WS02006251       128.124       260.090         2.660         0.190         1.291
  WS02006252WS02006251       337.867       664.412         6.367         0.440         3.064
  WS02006251WS02006249       456.219       905.708         8.855         0.619         4.276
  WS02006249WS02006248       380.902       751.420         7.396         0.517         3.573
  WS02006248WS02006247       385.528       760.222         7.511         0.527         3.635
  WS02006247WS02006245       383.484       755.483         7.482         0.526         3.622
  WS02006245WS02006243       381.401       750.730         7.453         0.525         3.610
  WS02006243WS02006242       380.069       747.204         7.443         0.525         3.608
  WS02006242WS02006240       377.666       741.491         7.410         0.524         3.594
  WS02006240WS02006239       376.875       739.195         7.405         0.524         3.594
  WS02006239WS02006238       377.724       740.336         7.432         0.527         3.609
  WS02006238WS02006235       378.377       741.428         7.439         0.527         3.612
  WS02006235WS02006234       650.472      1261.513        13.206         0.955         6.472
  WS02006234WS02006232       653.010      1266.557        13.278         0.962         6.511
  WS02006232WS02006231       655.830      1272.290        13.352         0.969         6.550
  WS02006231WS02006230       658.985      1278.875        13.429         0.976         6.590
  WS02006230WS02006229       663.259      1287.723        13.526         0.984         6.640
  WS02006228WS02006109      1304.954      2553.344        30.385         2.483        15.469
  WS02006116WS02004401      1333.616      2607.132        31.560         2.614        16.145
  WS02006115WS02006116      1335.222      2610.261        31.592         2.617        16.160
  WS02006113WS02006111      1311.140      2562.801        31.147         2.581        15.952
  WS02006112WS02006115      1337.150      2613.943        31.646         2.622        16.190
  WS02006111WS02006112      1310.208      2560.808        31.126         2.580        15.942
  WS02006110WS02006113      1311.734      2563.755        31.170         2.584        15.965
  WS02006109WS02006110      1312.804      2565.570        31.211         2.588        15.989
  WS02004411WS02004412      1319.433      2579.833        31.311         2.600        16.030
  WS02004401WS02004402      1331.792      2603.661        31.511         2.610        16.119
  WS02004413WS02003067      1314.718      2571.121        31.158         2.585        15.945
  WS02004412WS02004413      1317.311      2575.865        31.256         2.595        16.001
  WS02004410WS02004411      1321.233      2583.223        31.355         2.603        16.052
  WS02004409WS02004410      1323.012      2586.573        31.401         2.607        16.077
  WS02004407WS02004409      1324.597      2589.588        31.435         2.610        16.094
  WS02004406WS02004407      1325.096      2590.529        31.438         2.609        16.094
  WS02004405WS02004406      1327.360      2594.706        31.520         2.617        16.140
  WS02004404WS02004405      1328.883      2597.774        31.520         2.615        16.135
  WS02004403WS02004404      1328.680      2597.729        31.433         2.603        16.078
  WS02004402WS02004403      1330.131      2600.475        31.474         2.607        16.100
  WS02004139WS02001211      1325.656      2298.661        89.633        10.607        54.302
  WS02004138WS02004139      1331.323      2308.393        90.014        10.652        54.532
  WS02003067WS02003066      1313.666      2569.135        31.138         2.584        15.936
  WS02001213WS02003059      1360.659      2353.201        93.354        11.078        56.644
  WS02001212WS02001213      1369.416      2368.025        93.999        11.155        57.038
  WS02001211WS02001212      1371.516      2371.481        94.173        11.177        57.146
  WS02003072WS02003073      2774.145      5079.656       134.751        14.955        79.020
  WS02003069WS02003072      2779.745      5089.034       135.168        15.005        79.276
  WS02003060WS02003069      2783.124      5095.097       135.302        15.019        79.352
  WS02003059WS02003060      1357.735      2348.066        93.186        11.059        56.544
  HS02004901HS02004770        31.238        62.179         0.612         0.047         0.291
  HS02004876HS02004881       101.443       206.375         2.157         0.154         1.048
  HS02004870HS02004876        77.917       158.642         1.702         0.122         0.828
  HS02004842HS02004848        14.998        29.647         0.314         0.022         0.147
  HS02004837HS02004842        19.710        37.155         0.788         0.082         0.444
  HS02004830HS02004837       102.761       188.583         5.380         0.612         3.198
  HS02004824HS02004830       103.639       190.068         5.457         0.621         3.246
  HS02004817HS02004824       159.444       305.381         6.591         0.694         3.796
  HS02004770HS02004777       119.646       241.813         2.495         0.175         1.169
  HS02004799HS02004480       375.133       742.941         8.608         0.706         4.288
  HS02004792HS02004799       343.397       677.443         8.032         0.670         4.017
  HS02004788HS02004792       180.287       357.376         4.713         0.405         2.415
  HS02004785HS02004788       121.051       244.057         2.639         0.193         1.260
  HS02004777HS02004785       120.347       242.940         2.575         0.185         1.220
  HS02004480HS02004478       465.125       923.180        10.263         0.830         5.088
  HS02004479HS02004480        93.774       186.480         1.954         0.161         0.984
  HS02004862HS02004870        60.234       121.320         1.343         0.100         0.655
  HS02004848HS02004852        26.761        53.672         0.548         0.038         0.256
  HS02004856HS02004862        41.869        85.061         0.850         0.058         0.403
  HS02004852HS02004856        26.785        53.716         0.548         0.038         0.257
  HS02004802HS02004478       199.995       389.285         7.176         0.721         4.045
  HS02004478WS02006287       664.065      1310.664        17.386         1.545         9.102
  HS02004817HS02004807       158.330       303.729         6.457         0.677         3.712
  HS02004807HS02004802       199.964       389.194         7.201         0.724         4.062
  YS02001759YS02001757       558.382      1084.144        10.826         0.768         5.278
  YS02001762YS02001759       372.441       713.803         7.507         0.535         3.680
  YS02001765YS02001762       373.958       718.207         7.546         0.538         3.701
  YS02001770YS02001767       382.808       739.368         7.625         0.538         3.725
  YS02001774YS02001770       855.173      1693.706        16.820         1.150         8.174
  YS02001779YS02001774       854.698      1692.923        16.883         1.160         8.218
  YS02001649YS02001757       750.232      1457.233        14.925         1.023         7.225
  YS02001767YS02001765       377.111       725.920         7.609         0.543         3.733
  YS02006561YS02001783      1604.260      3075.556        33.257         2.438        16.409
  YS02001783YS02001784      1604.165      3075.420        33.253         2.438        16.406
  YS02001784YS02001785      1611.743      3087.617        33.981         2.529        16.862
  YS02001788YS02001790      1612.443      3088.796        34.058         2.539        16.911
  YS02001790YS02001791      1613.669      3090.822        34.172         2.553        16.982
  YS02001791YS02001793      1613.581      3090.650        34.168         2.553        16.980
  YS02001910YS02001907       954.738      1854.117        20.443         1.461        10.172
  YS02001786YS02001788      1612.009      3088.091        34.011         2.533        16.881
  YS02001915YS02001910       954.191      1853.006        20.395         1.455        10.141
  YS02001918YS02001915       475.337       891.635        10.626         0.864         5.439
  YS02001923YS02001920       449.205       846.728         8.549         0.612         4.157
  YS02001926YS02001923       446.091       841.054         8.427         0.600         4.087
  YS02001929YS02001926       443.371       836.192         8.331         0.591         4.033
  YS02001920YS02001918       470.773       882.007        10.528         0.858         5.390
  YS02001629YS02163301       211.124       399.167         4.158         0.296         1.989
  YS02001619YS02001622       451.514       869.190         9.097         0.616         4.297
  YS02001622YS02001625       451.238       868.858         9.086         0.615         4.292
  YS02001625YS02001629       205.488       388.151         4.058         0.288         1.938
  YS02163301YS02001633       216.876       410.442         4.258         0.304         2.039
  YS02163601YS02164001       717.684      1352.248        13.944         1.025         6.739
  YS02164001YS02001641       718.371      1353.490        13.944         1.024         6.737
  YS02001641YS02001644       720.787      1357.859        13.979         1.027         6.753
  YS02001647YS02001649       905.235      1742.787        18.230         1.276         8.757
  YS02006553YS02006556       813.061      1520.990        17.632         1.326         8.827
  YS02006556YS02006558       813.608      1522.027        17.600         1.321         8.803
  YSB6556YSB1171              54.546       108.520         1.086         0.087         0.541
  YS02001907YS02006553       812.772      1520.430        17.675         1.333         8.856
  YS02006558YS02006561      1604.088      3075.207        33.254         2.438        16.408
  YS02001633YS02163601       718.185      1353.060        13.918         1.020         6.719
  YS02001644YS02001647       912.600      1757.206        18.342         1.284         8.809
  YS02001745YS02001748       598.639      1179.718        11.880         0.762         5.732
  YS02001748YS02001751       598.218      1179.040        11.892         0.765         5.742
  YS02001751YS02001754       597.539      1177.948        11.881         0.765         5.738
  YS02001754YS02001757       598.794      1179.964        12.054         0.788         5.849
  YS02001882YS02001884         6.432        11.734         0.118         0.009         0.058
  YS02001884YS02001887         8.670        15.954         0.159         0.012         0.078
  YS02001890YS02001895       827.585      1598.940        15.737         1.199         7.707
  YS02001895YS02001898       827.490      1598.872        15.732         1.199         7.704
  YS02001898YS02001901       827.379      1598.617        15.730         1.199         7.703
  YS02001901YS02001904       826.833      1597.866        15.730         1.200         7.706
  YS02001904YS02001907       828.193      1599.940        15.824         1.210         7.762
  YS02001887YS02001890      1076.189      2095.237        20.320         1.551         9.946
  YS02001652YS02001649       550.553      1064.727        10.996         0.803         5.193
  YS02001655YS02001652       551.012      1065.498        11.010         0.804         5.200
  YS02001658YS02001655       550.538      1064.761        10.923         0.792         5.143
  YS02001661YS02001658       551.001      1065.487        10.933         0.793         5.147
  YS02001664YS02001661       558.916      1077.412        11.141         0.807         5.242
  YSB1154YSB6556              54.071       107.778         1.038         0.081         0.511
  YSB1174YSB1171              37.704        75.534         0.747         0.059         0.369
  YSB1171HS02004479           93.614       186.169         1.960         0.162         0.989
  HS02004881HS02006253       114.085       232.679         2.399         0.171         1.165
  YS02001793JiankangQianchi      1614.099      3091.507        34.188         2.555        16.991
  YS02001757CaochengTiaoxuchi       756.139      1472.243        14.540         1.002         7.017
  WSF200WS02003060          1312.649      2567.242        31.122         2.583        15.929
  1                         2779.161      5086.388       135.657        15.075        79.604
  CC-Pump-1                  247.303       486.551         4.649         0.321         2.236
  CC-Pump-2                   90.137       177.025         1.704         0.117         0.820
  JK-Pump-1                  448.767       867.624         9.311         0.690         4.606
  JK-Pump-2                  998.972      1938.982        20.430         1.501        10.067
  XR-Pump-1                  357.588       616.799        24.853         2.956        15.100
  XR-Pump-2                  334.724       580.197        22.670         2.684        13.737
  XR-Pump-3                  321.255       558.647        21.377         2.522        12.929
  XR-Pump-4                  321.255       558.647        21.377         2.522        12.929
  

  Analysis begun on:  Sat Jul 10 16:57:24 2021
  Analysis ended on:  Sat Jul 10 16:57:26 2021
  Total elapsed time: 00:00:02