
  EPA STORM WATER MANAGEMENT MODEL - VERSION 5.1 (Build 5.3.0.dev0)
  --------------------------------------------------------------

  WARNING 04: minimum elevation drop used for Conduit WS02004404WS02004405
  WARNING 03: negative offset ignored for Link YS02001904YS02001907
  
  *********************************************************
  NOTE: The summary statistics displayed in this report are
  based on results found at every computational time step,  
  not just on results from each reporting time step.
  *********************************************************
  
  ****************
  Analysis Options
  ****************
  Flow Units ............... LPS
  Process Models:
    Rainfall/Runoff ........ YES
    RDII ................... NO
    Snowmelt ............... NO
    Groundwater ............ NO
    Flow Routing ........... YES
    Ponding Allowed ........ NO
    Water Quality .......... YES
  Infiltration Method ...... HORTON
  Flow Routing Method ...... DYNWAVE
  Surcharge Method ......... EXTRAN
  Starting Date ............ 08/28/2015 08:00:00
  Ending Date .............. 08/28/2015 16:00:00
  Antecedent Dry Days ...... 8.0
  Report Time Step ......... 00:01:00
  Wet Time Step ............ 00:01:00
  Dry Time Step ............ 00:01:00
  Routing Time Step ........ 5.00 sec
  Variable Time Step ....... YES
  Maximum Trials ........... 8
  Number of Threads ........ 4
  Head Tolerance ........... 0.001500 m
  
  
  **************************        Volume         Depth
  Runoff Quantity Continuity     hectare-m            mm
  **************************     ---------       -------
  Total Precipitation ......         3.863         8.458
  Evaporation Loss .........         0.000         0.000
  Infiltration Loss ........         0.771         1.689
  Surface Runoff ...........         2.441         5.344
  Final Storage ............         0.651         1.426
  Continuity Error (%) .....        -0.018
  
  
  **************************           COD            SS            TN            TP         NH4-N
  Runoff Quality Continuity             kg            kg            kg            kg            kg
  **************************    ----------    ----------    ----------    ----------    ----------
  Initial Buildup ..........     41378.656     70582.865      1804.177       168.684      1032.807
  Surface Buildup ..........        15.529        24.593         2.286         0.210         1.343
  Wet Deposition ...........         0.000         0.000         0.000         0.000         0.000
  Sweeping Removal .........         0.000         0.000         0.000         0.000         0.000
  Infiltration Loss ........        49.583        89.558         0.959         0.065         0.453
  BMP Removal ..............         0.000         0.000         0.000         0.000         0.000
  Surface Runoff ...........      1688.608      2970.829        33.516         2.211        15.840
  Remaining Buildup ........     39655.499     67546.198      1771.978       166.617      1017.853
  Continuity Error (%) .....         0.001         0.001         0.001         0.000         0.000
  
  
  **************************        Volume        Volume
  Flow Routing Continuity        hectare-m      10^6 ltr
  **************************     ---------     ---------
  Dry Weather Inflow .......         0.630         6.296
  Wet Weather Inflow .......         2.440        24.401
  Groundwater Inflow .......         0.000         0.000
  RDII Inflow ..............         0.000         0.000
  External Inflow ..........         0.105         1.045
  External Outflow .........         1.732        17.322
  Flooding Loss ............         1.070        10.696
  Evaporation Loss .........         0.000         0.000
  Exfiltration Loss ........         0.000         0.000
  Initial Stored Volume ....         0.076         0.761
  Final Stored Volume ......         0.566         5.658
  Continuity Error (%) .....        -3.611
  
  
  **************************           COD            SS            TN            TP         NH4-N
  Quality Routing Continuity            kg            kg            kg            kg            kg
  **************************    ----------    ----------    ----------    ----------    ----------
  Dry Weather Inflow .......      1573.993      2518.389       151.103        18.888        94.440
  Wet Weather Inflow .......      1688.150      2970.075        33.506         2.210        15.835
  Groundwater Inflow .......         0.000         0.000         0.000         0.000         0.000
  RDII Inflow ..............         0.000         0.000         0.000         0.000         0.000
  External Inflow ..........       187.321       299.713        17.983         2.248        11.239
  External Outflow .........      2183.425      3600.031       169.612        20.579       104.321
  Flooding Loss ............       704.618      1228.749        15.213         1.118         7.518
  Exfiltration Loss ........         0.000         0.000         0.000         0.000         0.000
  Mass Reacted .............         0.000         0.000         0.000         0.000         0.000
  Initial Stored Mass ......         0.000         0.000         0.000         0.000         0.000
  Final Stored Mass ........       366.340       628.782         9.841         0.826         5.147
  Continuity Error (%) .....         5.655         5.712         3.913         3.527         3.726
  
  
  *************************
  Highest Continuity Errors
  *************************
  Node HS02004842 (18.71%)
  Node JK-storage (-15.34%)
  Node YS02001884 (11.02%)
  Node YS02001774 (5.52%)
  Node YSB1171 (3.97%)
  
  
  ***************************
  Time-Step Critical Elements
  ***************************
  Link WS02006252WS02006251 (56.93%)
  Link YS02006556YS02006558 (12.75%)
  Link WS02006238WS02006235 (8.07%)
  Link WS02006280WS02006229 (6.87%)
  Link YS02001793JiankangQianchi (3.65%)
  
  
  ********************************
  Highest Flow Instability Indexes
  ********************************
  Link WS02006113WS02006111 (41)
  Link YS02163601YS02164001 (31)
  Link YS02001629YS02163301 (30)
  Link YS02163301YS02001633 (30)
  Link YS02001619YS02001622 (29)
  
  
  *************************
  Routing Time Step Summary
  *************************
  Minimum Time Step           :     0.50 sec
  Average Time Step           :     1.36 sec
  Maximum Time Step           :     5.00 sec
  Percent in Steady State     :    -0.00
  Average Iterations per Step :     4.04
  Percent Not Converging      :    19.82
  
  
  ***************************
  Subcatchment Runoff Summary
  ***************************
  
  ------------------------------------------------------------------------------------------------------------------------------
                            Total      Total      Total      Total     Imperv       Perv      Total       Total     Peak  Runoff
                           Precip      Runon       Evap      Infil     Runoff     Runoff     Runoff      Runoff   Runoff   Coeff
  Subcatchment                 mm         mm         mm         mm         mm         mm         mm    10^6 ltr      LPS
  ------------------------------------------------------------------------------------------------------------------------------
  sub0                       8.46       0.00       0.00       0.59       7.82       0.00       7.82        0.01     1.16   0.925
  sub1                       8.46       0.00       0.00       0.93       7.44       0.00       7.44        0.05     7.70   0.880
  sub2                       8.46       0.00       0.00       3.13       5.25       0.00       5.25        0.05     7.52   0.621
  sub3                       8.46       0.00       0.00       3.13       5.22       0.00       5.22        0.12    17.42   0.617
  sub4                       8.46       0.00       0.00       0.93       7.30       0.00       7.30        0.15    21.43   0.863
  sub5                       8.46       0.00       0.00       0.59       7.78       0.00       7.78        0.09    13.72   0.919
  sub7                       8.46       0.00       0.00       0.76       7.64       0.00       7.64        0.03     4.36   0.903
  sub8                       8.46       0.00       0.00       0.76       7.63       0.00       7.63        0.05     7.94   0.902
  sub9                       8.46       0.00       0.00       0.76       7.63       0.00       7.63        0.04     5.92   0.902
  sub10                      8.46       0.00       0.00       0.68       7.70       0.00       7.70        0.08    13.25   0.910
  sub11                      8.46       0.00       0.00       0.68       7.71       0.00       7.72        0.09    14.79   0.912
  sub12                      8.46       0.00       0.00       1.10       7.31       0.00       7.31        0.06    11.39   0.865
  sub14                      8.46       0.00       0.00       0.76       7.62       0.00       7.62        0.07    11.62   0.901
  sub15                      8.46       0.00       0.00       2.54       5.86       0.00       5.86        0.10    15.92   0.693
  sub16                      8.46       0.00       0.00       2.79       5.63       0.00       5.63        0.06    10.32   0.666
  sub17                      8.46       0.00       0.00       2.71       5.71       0.00       5.71        0.05     8.48   0.675
  sub22                      8.46       0.00       0.00       3.64       4.78       0.00       4.78        0.30    50.23   0.565
  sub23                      8.46       0.00       0.00       3.13       5.29       0.00       5.29        0.25    42.38   0.625
  sub60                      8.46       0.00       0.00       1.01       5.90       0.00       5.90        1.79   164.80   0.698
  sub61                      8.46       0.00       0.00       1.44       6.06       0.00       6.06        1.87   190.11   0.716
  sub62                      8.46       0.00       0.00       0.68       6.57       0.00       6.57        2.02   200.02   0.777
  sub63                      8.46       0.00       0.00       2.45       5.32       0.00       5.32        1.61   170.11   0.629
  sub64                      8.46       0.00       0.00       1.27       5.66       0.00       5.66        1.72   157.25   0.669
  sub65                      8.46       0.00       0.00       1.10       5.75       0.00       5.75        1.77   160.29   0.680
  sub66                      8.46       0.00       0.00       2.45       4.87       0.00       4.87        1.49   141.15   0.576
  sub67                      8.46       0.00       0.00       0.68       6.98       0.00       6.98        2.15   235.00   0.825
  sub68                      8.46       0.00       0.00       1.18       6.38       0.00       6.38        1.96   204.33   0.755
  sub69                      8.46       0.00       0.00       1.27       6.66       0.00       6.66        1.56   184.58   0.788
  sub70                      8.46       6.80       0.00       5.12       8.77       0.07       8.84        2.02   196.15   0.579
  sub71                      8.46       0.00       0.00       0.68       6.38       0.00       6.38        1.51   143.90   0.754
  sub72                      8.46       0.00       0.00       0.59       4.96       0.00       4.96        1.01    76.81   0.587
  1                          8.46       8.61       0.00       1.40       9.50       2.14      11.63        2.73   208.46   0.682
  2                          8.46       0.00       0.00       3.09       1.99       0.83       2.82        1.13   115.90   0.333
  
  
  ****************************
  Subcatchment Washoff Summary
  ****************************
  
  ------------------------------------------------------------------------------------------
                                 COD            SS            TN            TP         NH4-N
  Subcatchment                    kg            kg            kg            kg            kg
  ------------------------------------------------------------------------------------------
  sub0                         1.269         2.347         0.021         0.002         0.010
  sub1                         5.368        10.152         0.101         0.007         0.048
  sub2                         3.123         5.706         0.069         0.004         0.031
  sub3                         7.722        13.979         0.167         0.011         0.076
  sub4                        12.454        23.700         0.253         0.015         0.121
  sub5                        12.367        23.084         0.218         0.016         0.105
  sub7                         2.789         5.362         0.053         0.003         0.025
  sub8                         4.236         8.323         0.086         0.005         0.041
  sub9                         3.593         6.962         0.070         0.004         0.034
  sub10                       10.223        19.332         0.187         0.013         0.090
  sub11                       10.038        19.218         0.188         0.013         0.091
  sub12                        8.270        15.515         0.149         0.011         0.071
  sub14                        7.633        14.652         0.146         0.009         0.070
  sub15                        8.991        16.442         0.177         0.013         0.082
  sub16                        5.608        10.223         0.108         0.008         0.050
  sub17                        5.144         9.292         0.096         0.007         0.045
  sub22                       26.265        46.903         0.511         0.038         0.236
  sub23                       16.126        29.920         0.358         0.023         0.162
  sub60                      111.189       195.701         2.296         0.135         1.097
  sub61                      137.158       240.188         2.611         0.173         1.253
  sub62                      144.905       258.543         2.914         0.178         1.395
  sub63                      101.253       174.676         2.116         0.145         0.971
  sub64                      135.285       229.312         2.541         0.180         1.207
  sub65                      138.838       236.388         2.628         0.183         1.251
  sub66                       79.547       136.083         1.713         0.108         0.794
  sub67                      213.239       376.927         3.844         0.276         1.852
  sub68                      152.320       269.719         2.990         0.195         1.422
  sub69                      137.629       246.574         2.627         0.179         1.250
  sub70                      220.736       396.570         4.531         0.305         2.102
  sub71                       96.350       173.424         2.061         0.115         0.983
  sub72                       70.842       118.244         1.360         0.090         0.652
  1                          137.857       249.361         2.909         0.197         1.332
  2                           18.605        31.151         0.577         0.034         0.242
  ------------------------------------------------------------------------------------------
  System                    2046.973      3613.974        40.674         2.696        19.192
  
  
  ******************
  Node Depth Summary
  ******************
  
  ---------------------------------------------------------------------------------
                                 Average  Maximum  Maximum  Time of Max    Reported
                                   Depth    Depth      HGL   Occurrence   Max Depth
  Node                 Type       Meters   Meters   Meters  days hr:min      Meters
  ---------------------------------------------------------------------------------
  WS02001211           JUNCTION     0.76     0.80     5.64     0  03:31        0.80
  WS02001212           JUNCTION     0.47     0.51     5.58     0  03:31        0.51
  WS02001213           JUNCTION     0.70     0.77     5.53     0  03:30        0.77
  WS02003069           JUNCTION     0.47     0.60     5.18     0  03:29        0.60
  WS02003072           JUNCTION     0.54     0.65     5.03     0  03:30        0.65
  WS02003073           JUNCTION     0.32     0.40     4.47     0  03:31        0.40
  WS02003060           JUNCTION     0.42     0.53     5.46     0  03:29        0.53
  WS02003066           JUNCTION     0.22     0.31     5.86     0  03:28        0.31
  WS02003059           JUNCTION     0.75     0.82     5.51     0  03:29        0.82
  WS02003067           JUNCTION     0.55     0.72     6.04     0  03:28        0.72
  WS02004401           JUNCTION     0.65     0.89     6.89     0  03:23        0.89
  WS02004402           JUNCTION     0.68     0.91     6.87     0  03:24        0.91
  WS02004403           JUNCTION     0.70     0.92     6.85     0  03:24        0.92
  WS02004404           JUNCTION     0.78     0.99     6.84     0  03:24        0.99
  WS02004406           JUNCTION     0.78     0.98     6.81     0  03:24        0.98
  WS02004409           JUNCTION     0.45     0.70     6.47     0  03:27        0.70
  WS02004410           JUNCTION     0.47     0.71     6.43     0  03:27        0.71
  WS02004411           JUNCTION     0.49     0.72     6.40     0  03:27        0.72
  WS02004412           JUNCTION     0.51     0.72     6.36     0  03:27        0.72
  WS02004413           JUNCTION     0.67     0.88     6.35     0  03:28        0.88
  WS02004405           JUNCTION     0.77     0.98     6.83     0  03:24        0.98
  WS02006109           JUNCTION     0.73     1.03     7.65     0  03:18        1.03
  WS02006110           JUNCTION     0.73     0.96     7.54     0  03:20        0.96
  WS02006111           JUNCTION     0.21     0.30     7.01     0  03:19        0.30
  WS02006112           JUNCTION     0.82     1.15     7.03     0  03:26        1.11
  WS02006113           JUNCTION     0.32     0.48     7.37     0  03:19        0.48
  WS02006115           JUNCTION     0.54     0.79     6.93     0  03:23        0.79
  WS02006116           JUNCTION     0.62     0.87     6.91     0  03:23        0.87
  WS02006230           JUNCTION     0.71     1.16     7.91     0  03:18        1.16
  WS02006231           JUNCTION     0.46     0.91     8.04     0  03:19        0.91
  WS02006232           JUNCTION     0.59     1.10     8.14     0  03:19        1.10
  WS02006234           JUNCTION     0.51     1.10     8.26     0  03:21        1.10
  WS02006235           JUNCTION     0.55     1.19     8.36     0  03:19        1.19
  WS02006238           JUNCTION     0.57     1.22     8.36     0  03:24        1.21
  WS02006240           JUNCTION     0.46     1.16     8.45     0  03:20        1.15
  WS02006242           JUNCTION     0.50     1.23     8.50     0  03:19        1.23
  WS02006243           JUNCTION     0.38     1.14     8.56     0  03:23        1.13
  WS02006245           JUNCTION     0.35     1.12     8.61     0  03:23        1.12
  WS02006247           JUNCTION     0.36     1.14     8.64     0  03:18        1.13
  WS02006248           JUNCTION     0.30     1.08     8.67     0  03:22        1.08
  WS02006249           JUNCTION     0.33     1.09     8.69     0  03:18        1.09
  WS02006239           JUNCTION     0.52     1.20     8.41     0  03:21        1.19
  WS02006251           JUNCTION     0.30     1.31     8.98     0  03:18        1.17
  WS02006252           JUNCTION     0.22     0.85     9.09     0  03:18        0.68
  WS02006253           JUNCTION     0.33     1.39     9.03     0  03:18        1.36
  WS02006256           JUNCTION     1.71     2.35     9.28     0  00:00        2.35
  WS02004138           JUNCTION     0.19     0.20     7.45     0  00:00        0.19
  WS02004139           JUNCTION     0.71     0.74     5.65     0  03:32        0.74
  WS02004407           JUNCTION     0.21     0.31     6.62     0  03:24        0.31
  WS02006228           JUNCTION     0.73     1.09     7.74     0  03:18        1.08
  WS02006229           JUNCTION     0.71     1.08     7.78     0  03:18        1.08
  WS02006280           JUNCTION     0.06     0.14     8.42     0  02:09        0.14
  WS02006284           JUNCTION     0.36     0.48     8.88     0  02:09        0.48
  WS02006287           JUNCTION     0.09     0.21     9.17     0  02:08        0.21
  WSF200               JUNCTION     0.19     0.32     5.55     0  03:28        0.32
  HS02004901           JUNCTION     0.12     0.23    10.05     0  01:37        0.23
  HS02004881           JUNCTION     0.01     0.02     9.05     0  02:08        0.02
  HS02004876           JUNCTION     0.04     0.10     9.13     0  02:07        0.10
  HS02004870           JUNCTION     0.01     0.04     9.33     0  02:08        0.04
  HS02004862           JUNCTION     0.02     0.05     9.43     0  02:08        0.05
  HS02004856           JUNCTION     0.08     0.11     9.53     0  02:08        0.11
  HS02004852           JUNCTION     0.01     0.03     9.54     0  02:09        0.03
  HS02004848           JUNCTION     0.01     0.03     9.63     0  02:08        0.03
  HS02004842           JUNCTION     0.33     0.36     9.63     0  02:08        0.36
  HS02004837           JUNCTION     0.03     0.05     9.63     0  02:08        0.05
  HS02004830           JUNCTION     0.04     0.06     9.53     0  02:09        0.06
  HS02004824           JUNCTION     0.02     0.04     9.45     0  02:09        0.04
  HS02004817           JUNCTION     0.44     0.53     9.38     0  02:09        0.53
  HS02004807           JUNCTION     0.12     0.21     9.38     0  02:09        0.21
  HS02004802           JUNCTION     0.16     0.24     9.37     0  02:09        0.24
  HS02004799           JUNCTION     0.12     0.25     9.46     0  01:38        0.25
  HS02004792           JUNCTION     0.03     0.10     9.62     0  01:37        0.10
  HS02004788           JUNCTION     0.02     0.07     9.97     0  01:38        0.07
  HS02004785           JUNCTION     0.04     0.13    10.03     0  01:38        0.13
  HS02004777           JUNCTION     0.15     0.25    10.05     0  01:37        0.25
  HS02004770           JUNCTION     0.11     0.22    10.05     0  01:37        0.22
  HS02004480           JUNCTION     0.08     0.20     9.44     0  01:38        0.20
  HS02004479           JUNCTION     0.11     0.23     9.44     0  01:39        0.23
  HS02004478           JUNCTION     0.06     0.13     9.35     0  02:08        0.13
  YS02001745           JUNCTION     0.71     0.87     8.39     0  03:44        0.87
  YS02001748           JUNCTION     1.10     1.37     8.45     0  02:34        1.30
  YS02001751           JUNCTION     1.29     2.20     9.08     0  02:20        1.51
  YS02001754           JUNCTION     1.54     2.10     8.71     0  02:20        1.79
  YS02001762           JUNCTION     1.74     2.04     8.44     0  02:48        2.01
  YS02001765           JUNCTION     1.69     1.99     8.44     0  02:47        1.96
  YS02001767           JUNCTION     1.65     1.94     8.43     0  02:47        1.92
  YS02001770           JUNCTION     1.65     1.93     8.43     0  02:39        1.90
  YS02001774           JUNCTION     1.72     1.99     8.42     0  02:39        1.96
  YS02001779           JUNCTION     1.47     1.68     8.37     0  02:23        1.68
  YS02001882           JUNCTION     0.38     0.65     7.36     0  02:34        0.64
  YS02001884           JUNCTION     0.47     0.74     7.36     0  02:33        0.74
  YS02001759           JUNCTION     1.77     2.08     8.45     0  02:48        2.05
  YS02001887           JUNCTION     0.55     0.82     7.36     0  02:33        0.82
  YS02001890           JUNCTION     0.58     0.85     7.36     0  02:33        0.85
  YS02001898           JUNCTION     0.35     0.61     7.34     0  02:32        0.60
  YS02001901           JUNCTION     0.47     0.73     7.34     0  02:32        0.73
  YS02001904           JUNCTION     0.45     0.71     7.34     0  02:55        0.70
  YS02001907           JUNCTION     0.78     1.07     7.36     0  02:55        1.05
  YS02001910           JUNCTION     0.56     0.83     7.34     0  02:55        0.83
  YS02001915           JUNCTION     0.36     0.62     7.34     0  02:56        0.62
  YS02001918           JUNCTION     0.13     0.27     7.33     0  02:51        0.27
  YS02001619           JUNCTION     1.25     1.57     8.50     0  02:29        1.47
  YS02001629           JUNCTION     1.60     1.85     8.40     0  02:34        1.85
  YS02001641           JUNCTION     1.70     1.94     8.38     0  02:43        1.93
  YS02001644           JUNCTION     1.71     1.92     8.35     0  02:41        1.92
  YS02001652           JUNCTION     1.55     2.14     8.74     0  02:56        1.91
  YS02001655           JUNCTION     1.31     2.06     8.91     0  03:13        1.72
  YS02001920           JUNCTION     0.23     0.34     7.35     0  02:52        0.34
  YS02001923           JUNCTION     0.09     0.13     7.39     0  03:01        0.13
  YS02001926           JUNCTION     0.18     0.24     7.69     0  03:01        0.24
  YS02001929           JUNCTION     0.09     0.13     7.82     0  03:01        0.13
  YS02001658           JUNCTION     1.05     2.12     9.26     0  02:56        1.50
  YS02001661           JUNCTION     0.81     2.16     9.57     0  02:56        1.38
  YS02001664           JUNCTION     0.36     0.57     8.49     0  02:50        0.57
  YS02001622           JUNCTION     1.27     1.53     8.43     0  02:29        1.49
  YS02001633           JUNCTION     1.69     1.95     8.41     0  02:42        1.94
  YS02001649           JUNCTION     1.75     2.05     8.44     0  02:45        2.05
  YS02001757           JUNCTION     1.87     2.18     8.44     0  02:48        2.15
  YS02001895           JUNCTION     0.34     0.60     7.35     0  02:33        0.60
  YS02001625           JUNCTION     1.55     1.78     8.38     0  02:33        1.78
  YS02163301           JUNCTION     1.63     1.90     8.42     0  02:34        1.88
  YS02163601           JUNCTION     1.74     2.00     8.40     0  02:42        1.99
  YS02164001           JUNCTION     1.68     1.93     8.39     0  02:42        1.92
  YS02001647           JUNCTION     1.54     1.82     8.43     0  02:48        1.79
  YSB1154              JUNCTION     0.25     0.38     9.44     0  01:38        0.38
  YSB6556              JUNCTION     0.15     0.27     9.44     0  01:38        0.27
  YSB1174              JUNCTION     0.20     0.33     9.44     0  01:38        0.33
  YSB1171              JUNCTION     0.40     0.54     9.44     0  01:39        0.54
  YS02006553           JUNCTION     0.78     1.07     7.36     0  02:55        1.05
  YS02006561           JUNCTION     0.19     0.37     7.03     0  03:12        0.36
  YS02006556           JUNCTION     0.75     1.05     7.36     0  02:55        1.02
  YS02006558           JUNCTION     0.79     1.08     7.35     0  02:55        1.07
  YS02001783           JUNCTION     0.36     1.37     7.51     0  03:12        0.91
  YS02001784           JUNCTION     0.39     1.44     7.50     0  03:12        0.93
  YS02001786           JUNCTION     0.34     1.57     7.60     0  03:12        0.89
  YS02001788           JUNCTION     0.27     1.49     7.46     0  03:12        0.87
  YS02001790           JUNCTION     0.35     1.96     7.60     0  03:10        1.12
  YS02001791           JUNCTION     0.28     2.72     8.19     0  03:09        1.21
  YS02001793           JUNCTION     0.35     2.86     7.69     0  03:08        1.79
  WSC                  OUTFALL      0.32     0.40     1.07     0  03:31        0.40
  JK-storage           STORAGE      2.02     5.80     6.60     0  02:11        5.80
  CC-storage           STORAGE      1.13     1.38     8.38     0  03:44        1.38
  XR-storage           STORAGE      4.00     7.19     5.19     0  04:23        7.19
  
  
  *******************
  Node Inflow Summary
  *******************
  
  -------------------------------------------------------------------------------------------------
                                  Maximum  Maximum                  Lateral       Total        Flow
                                  Lateral    Total  Time of Max      Inflow      Inflow     Balance
                                   Inflow   Inflow   Occurrence      Volume      Volume       Error
  Node                 Type           LPS      LPS  days hr:min    10^6 ltr    10^6 ltr     Percent
  -------------------------------------------------------------------------------------------------
  WS02001211           JUNCTION      7.35   389.03     0  04:00       0.212        10.5       0.390
  WS02001212           JUNCTION      0.00   390.62     0  04:00           0        10.4       0.236
  WS02001213           JUNCTION      0.00   392.22     0  03:59           0        10.4       0.283
  WS02003069           JUNCTION      0.32   981.61     0  03:29     0.00922        17.4       0.217
  WS02003072           JUNCTION      0.00   981.45     0  03:30           0        17.4       0.257
  WS02003073           JUNCTION      1.82   983.21     0  03:30      0.0524        17.4       0.300
  WS02003060           JUNCTION     16.53   981.35     0  03:29       0.476        17.4       0.202
  WS02003066           JUNCTION      0.00   581.28     0  03:28           0        6.61       0.077
  WS02003059           JUNCTION      0.00   394.94     0  03:59           0        10.4       0.397
  WS02003067           JUNCTION      0.00   581.23     0  03:28           0        6.62       0.155
  WS02004401           JUNCTION      0.00   585.15     0  03:23           0        6.88       0.335
  WS02004402           JUNCTION      0.00   584.59     0  03:23           0        6.85       0.314
  WS02004403           JUNCTION      0.00   584.05     0  03:24           0        6.83       0.284
  WS02004404           JUNCTION      0.16   583.97     0  03:24     0.00467        6.82       0.212
  WS02004406           JUNCTION      0.00   583.92     0  03:24           0        6.78       0.520
  WS02004409           JUNCTION      0.00   583.35     0  03:24           0        6.74       0.281
  WS02004410           JUNCTION      0.00   581.89     0  03:27           0        6.72       0.315
  WS02004411           JUNCTION      0.00   581.55     0  03:27           0         6.7       0.320
  WS02004412           JUNCTION      0.00   581.47     0  03:27           0        6.68       0.341
  WS02004413           JUNCTION      0.00   581.29     0  03:27           0        6.66       0.499
  WS02004405           JUNCTION      0.04   583.84     0  03:24      0.0011        6.81       0.316
  WS02006109           JUNCTION      1.23   588.97     0  03:19      0.0354        6.96       0.272
  WS02006110           JUNCTION      0.00   588.81     0  03:19           0        6.94       0.285
  WS02006111           JUNCTION      0.00   617.42     0  03:19           0        6.91       0.071
  WS02006112           JUNCTION      8.48   595.73     0  03:19       0.049        6.95       0.465
  WS02006113           JUNCTION      0.00   589.38     0  03:19           0        6.92       0.148
  WS02006115           JUNCTION      0.00   597.73     0  03:20           0        6.92       0.326
  WS02006116           JUNCTION      0.00   586.54     0  03:23           0         6.9       0.281
  WS02006230           JUNCTION     10.28   519.62     0  03:24       0.296        5.45       0.264
  WS02006231           JUNCTION      0.00   509.33     0  03:24           0        5.16       0.178
  WS02006232           JUNCTION      0.00   509.35     0  03:24           0        5.18       0.384
  WS02006234           JUNCTION      0.00   509.94     0  03:24           0        5.18       0.081
  WS02006235           JUNCTION      0.00   509.98     0  03:24           0        5.34       0.313
  WS02006238           JUNCTION      0.00   317.17     0  03:24           0        2.15       0.289
  WS02006240           JUNCTION      0.00   317.01     0  03:24           0        2.05       0.622
  WS02006242           JUNCTION      0.00   316.96     0  03:24           0           2       0.809
  WS02006243           JUNCTION      0.00   316.99     0  03:24           0        1.98       0.364
  WS02006245           JUNCTION      0.00   330.81     0  05:50           0        1.97       0.623
  WS02006247           JUNCTION      0.00   349.48     0  05:50           0        1.97       0.420
  WS02006248           JUNCTION      0.00   363.56     0  05:50           0        1.97       0.209
  WS02006249           JUNCTION      0.00   411.03     0  03:20           0        2.01       0.635
  WS02006239           JUNCTION      0.00   317.38     0  03:24           0         2.1       0.475
  WS02006251           JUNCTION      0.08   411.87     0  03:20     0.00222        2.05       0.394
  WS02006252           JUNCTION      0.00   399.86     0  03:20           0        1.74       0.033
  WS02006253           JUNCTION      1.16    97.93     0  03:16     0.00633        0.31       1.384
  WS02006256           JUNCTION      0.00   983.00     0  02:30           0        7.16      -0.009
  WS02004138           JUNCTION      0.00   380.00     0  00:00           0        10.3       0.062
  WS02004139           JUNCTION      0.32   395.85     0  00:00     0.00924        10.3       0.445
  WS02004407           JUNCTION      0.00   583.61     0  03:24           0        6.75       0.121
  WS02006228           JUNCTION      0.00   587.83     0  03:19           0        6.94       0.220
  WS02006229           JUNCTION      0.00   586.95     0  03:19           0        6.95       0.233
  WS02006280           JUNCTION      0.00   211.61     0  02:09           0        1.52       0.004
  WS02006284           JUNCTION      0.10   211.60     0  02:09     0.00275        1.52       0.027
  WS02006287           JUNCTION      0.00   211.51     0  02:08           0        1.52       0.047
  WSF200               JUNCTION      0.00   581.29     0  03:28           0        6.61       0.073
  HS02004901           JUNCTION     10.32    10.32     0  01:33      0.0589      0.0592       3.057
  HS02004881           JUNCTION      4.36    42.78     0  02:08      0.0257       0.274       0.075
  HS02004876           JUNCTION      7.70    38.75     0  02:08      0.0495       0.249       0.212
  HS02004870           JUNCTION      7.94    31.07     0  02:08      0.0487       0.199       0.052
  HS02004862           JUNCTION      7.72    23.49     0  02:08      0.0547       0.151       0.110
  HS02004856           JUNCTION      5.92    15.80     0  02:08      0.0367      0.0975       1.502
  HS02004852           JUNCTION      0.00    10.11     0  02:08           0      0.0609       0.083
  HS02004848           JUNCTION     17.42    17.42     0  02:08       0.117       0.117       0.035
  HS02004842           JUNCTION      0.00     7.32     0  02:10           0      0.0695      23.015
  HS02004837           JUNCTION     19.60    26.85     0  02:08       0.268       0.324       0.250
  HS02004830           JUNCTION      0.15    26.99     0  02:08     0.00432       0.315       0.393
  HS02004824           JUNCTION     21.48    48.47     0  02:09       0.154       0.467       0.115
  HS02004817           JUNCTION      0.60    49.06     0  02:09      0.0173       0.484       3.566
  HS02004807           JUNCTION     14.79    62.91     0  02:09      0.0896       0.558       0.786
  HS02004802           JUNCTION      0.00    62.92     0  02:10           0       0.556       0.716
  HS02004799           JUNCTION     11.62   130.75     0  01:37      0.0726       0.836       0.345
  HS02004792           JUNCTION     50.51   119.20     0  01:37        0.31       0.764       0.053
  HS02004788           JUNCTION     17.59    69.40     0  01:38       0.149       0.455       0.085
  HS02004785           JUNCTION      0.15    51.92     0  01:37     0.00432       0.308       0.156
  HS02004777           JUNCTION      0.03    52.01     0  01:35    0.000864       0.308       1.713
  HS02004770           JUNCTION     42.38    52.41     0  01:35       0.252       0.309       1.004
  HS02004480           JUNCTION      0.00   154.76     0  01:38           0       0.984       0.096
  HS02004479           JUNCTION      0.00    24.23     0  01:40           0        0.16       0.457
  HS02004478           JUNCTION      0.00   211.50     0  02:08           0        1.52       0.023
  YS02001745           JUNCTION    164.81   213.10     0  02:34        1.79        1.79       0.610
  YS02001748           JUNCTION      0.04   360.01     0  02:34      0.0013        1.78       1.274
  YS02001751           JUNCTION      0.01   357.73     0  02:20    0.000317        1.76       1.329
  YS02001754           JUNCTION      0.26   196.47     0  02:17     0.00749        1.74       1.440
  YS02001762           JUNCTION      0.00   232.69     0  02:29           0        1.56       1.377
  YS02001765           JUNCTION      0.00   227.51     0  02:29           0        1.56       1.577
  YS02001767           JUNCTION      0.54   222.79     0  02:29      0.0154        1.58       2.299
  YS02001770           JUNCTION    200.17   210.66     0  02:29        2.02        2.04       1.566
  YS02001774           JUNCTION      0.00   163.27     0  03:07           0       0.459       5.840
  YS02001779           JUNCTION      0.01   163.71     0  03:07    0.000144       0.428       3.701
  YS02001882           JUNCTION      0.00    13.56     0  02:22           0      0.0184      11.763
  YS02001884           JUNCTION      0.00    20.73     0  03:09           0      0.0493      12.390
  YS02001759           JUNCTION    190.15   423.14     0  02:29        1.87        3.38       0.685
  YS02001887           JUNCTION    235.45   247.03     0  02:52        2.17        2.19       0.354
  YS02001890           JUNCTION      0.00   245.20     0  02:34           0        2.15       0.394
  YS02001898           JUNCTION      0.00   250.21     0  02:34           0        2.14       0.117
  YS02001901           JUNCTION      0.00   252.00     0  02:35           0        2.14       0.291
  YS02001904           JUNCTION      0.00   252.88     0  02:34           0        2.13       0.266
  YS02001907           JUNCTION      0.00   482.47     0  02:56           0        4.71       0.493
  YS02001910           JUNCTION      0.00   245.13     0  02:58           0        2.59       0.424
  YS02001915           JUNCTION    143.92   236.91     0  02:57        1.51        2.59       0.200
  YS02001918           JUNCTION      0.00    87.75     0  02:58           0        1.09       0.145
  YS02001619           JUNCTION    141.15   141.15     0  02:54        1.49        1.49       0.815
  YS02001629           JUNCTION      0.00   187.29     0  02:17           0        1.41       2.067
  YS02001641           JUNCTION      0.00   322.02     0  02:32           0        3.08       0.695
  YS02001644           JUNCTION    157.29   801.76     0  03:04        1.72        7.35       0.354
  YS02001652           JUNCTION      0.00   242.05     0  02:27           0        1.56       1.548
  YS02001655           JUNCTION      0.15   351.31     0  02:18     0.00443        1.58       1.592
  YS02001920           JUNCTION      2.87    79.72     0  03:01      0.0827        1.09       0.235
  YS02001923           JUNCTION      0.04    76.85     0  03:01     0.00109        1.01       0.043
  YS02001926           JUNCTION      0.05    76.85     0  03:01      0.0015        1.01       0.289
  YS02001929           JUNCTION     76.81    76.81     0  03:01        1.01        1.01       0.041
  YS02001658           JUNCTION      0.00   579.56     0  02:27           0        1.63       1.329
  YS02001661           JUNCTION      0.00   543.64     0  02:46           0        1.87       0.169
  YS02001664           JUNCTION    170.11   365.99     0  02:46        1.61        1.85       0.319
  YS02001622           JUNCTION      0.00   155.20     0  02:21           0        1.48       2.192
  YS02001633           JUNCTION    160.49   320.83     0  02:32        1.77        3.14       1.038
  YS02001649           JUNCTION      0.00   629.05     0  02:27           0        4.92       0.771
  YS02001757           JUNCTION      0.00  1147.62     0  02:41           0        7.49       1.246
  YS02001895           JUNCTION      0.00   251.29     0  02:35           0        2.14       0.209
  YS02001625           JUNCTION      0.00   187.31     0  02:17           0        1.45       2.780
  YS02163301           JUNCTION      0.00   168.28     0  02:32           0        1.39       1.752
  YS02163601           JUNCTION      0.11   322.44     0  02:32     0.00317         3.1       0.982
  YS02164001           JUNCTION      0.00   323.40     0  02:32           0        3.08       0.660
  YS02001647           JUNCTION      0.00   474.12     0  02:32           0        4.19       0.682
  YSB1154              JUNCTION     13.72    13.72     0  02:07      0.0881      0.0887       1.654
  YSB6556              JUNCTION      0.00    13.71     0  02:07           0      0.0895       1.414
  YSB1174              JUNCTION     11.39    11.39     0  01:33      0.0639      0.0643       2.032
  YSB1171              JUNCTION      0.00    24.40     0  01:39           0       0.159       4.138
  YS02006553           JUNCTION      0.00   474.35     0  02:56           0         4.7       0.321
  YS02006561           JUNCTION      0.00   702.70     0  02:50           0        6.64       0.009
  YS02006556           JUNCTION      0.00   476.82     0  02:56           0        4.71       0.226
  YS02006558           JUNCTION    205.21   698.49     0  02:55        1.99        6.67       0.068
  YS02001783           JUNCTION      0.00   678.11     0  02:57           0        6.64       0.022
  YS02001784           JUNCTION      1.06   675.85     0  02:57      0.0305        6.66       0.043
  YS02001786           JUNCTION      0.06   676.36     0  02:30     0.00162        6.66       0.037
  YS02001788           JUNCTION      0.07   713.88     0  02:30     0.00204        6.66       0.027
  YS02001790           JUNCTION      0.15   772.23     0  02:29     0.00446        6.67       0.008
  YS02001791           JUNCTION      0.00   811.83     0  02:30           0        6.67       0.012
  YS02001793           JUNCTION      0.00   859.42     0  02:30           0        6.67      -0.048
  WSC                  OUTFALL       0.00   983.10     0  03:31           0        17.3       0.000
  JK-storage           STORAGE       0.00   877.13     0  03:08           0        6.83     -13.303
  CC-storage           STORAGE       0.00  1148.12     0  02:41           0         5.6       1.150
  XR-storage           STORAGE     515.95   515.95     0  02:56        9.62        10.2      -0.960
  
  
  **********************
  Node Surcharge Summary
  **********************
  
  Surcharging occurs when water rises above the top of the highest conduit.
  ---------------------------------------------------------------------
                                               Max. Height   Min. Depth
                                   Hours       Above Crown    Below Rim
  Node                 Type      Surcharged         Meters       Meters
  ---------------------------------------------------------------------
  WS02006109           JUNCTION        2.27          0.213        1.607
  WS02006110           JUNCTION        0.23          0.050        1.800
  WS02006112           JUNCTION        0.44          0.146        1.534
  WS02006230           JUNCTION        0.19          0.085        1.485
  WS02006231           JUNCTION        0.30          0.203        1.327
  WS02006232           JUNCTION        1.61          0.404        1.076
  WS02006234           JUNCTION        0.90          0.384        0.856
  WS02006235           JUNCTION        1.23          0.482        0.808
  WS02006238           JUNCTION        1.34          0.500        0.930
  WS02006240           JUNCTION        0.53          0.448        0.942
  WS02006242           JUNCTION        0.73          0.503        0.317
  WS02006243           JUNCTION        0.40          0.428        0.342
  WS02006245           JUNCTION        0.35          0.415        0.435
  WS02006247           JUNCTION        0.35          0.427        0.333
  WS02006248           JUNCTION        0.25          0.363        0.017
  WS02006249           JUNCTION        0.28          0.390        0.000
  WS02006239           JUNCTION        0.88          0.460        0.830
  WS02006251           JUNCTION        0.12          0.284        0.896
  WS02006252           JUNCTION        0.38          0.449        0.651
  WS02006253           JUNCTION        0.13          0.348        2.132
  WS02006256           JUNCTION        6.81          2.050        0.000
  WS02006228           JUNCTION        2.17          0.256        1.944
  YS02001748           JUNCTION        5.38          0.291        0.899
  YS02001751           JUNCTION        5.61          1.200        0.000
  YS02001754           JUNCTION        5.91          1.052        0.098
  YS02001762           JUNCTION        6.13          1.039        0.111
  YS02001765           JUNCTION        6.10          0.987        0.113
  YS02001767           JUNCTION        6.07          0.939        0.091
  YS02001770           JUNCTION        6.05          0.900        0.020
  YS02001774           JUNCTION        6.13          0.993        0.057
  YS02001779           JUNCTION        5.89          0.680        0.000
  YS02001759           JUNCTION        6.16          1.082        0.128
  YS02001907           JUNCTION        0.93          0.060        0.890
  YS02001619           JUNCTION        5.59          0.575        0.035
  YS02001629           JUNCTION        5.60          0.470        0.000
  YS02001641           JUNCTION        6.11          0.941        0.159
  YS02001644           JUNCTION        6.11          0.920        0.000
  YS02001652           JUNCTION        5.97          1.112        0.018
  YS02001655           JUNCTION        5.64          1.062        0.138
  YS02001658           JUNCTION        5.40          1.121        0.179
  YS02001661           JUNCTION        0.10          1.095        0.295
  YS02001622           JUNCTION        5.64          0.529        0.091
  YS02001633           JUNCTION        6.09          0.933        0.127
  YS02001649           JUNCTION        6.14          1.050        0.000
  YS02001757           JUNCTION        6.24          1.183        0.027
  YS02001625           JUNCTION        6.01          0.780        0.000
  YS02163301           JUNCTION        6.07          0.898        0.132
  YS02163601           JUNCTION        6.14          0.998        0.082
  YS02164001           JUNCTION        6.10          0.930        0.170
  YS02001647           JUNCTION        5.99          0.824        0.076
  YS02006553           JUNCTION        1.05          0.074        1.116
  YS02006556           JUNCTION        0.01          0.012        1.338
  YS02001783           JUNCTION        0.21          0.568        1.032
  YS02001784           JUNCTION        0.29          0.637        0.853
  YS02001786           JUNCTION        0.20          0.767        0.663
  YS02001788           JUNCTION        0.16          0.687        0.793
  YS02001790           JUNCTION        0.78          1.157        0.000
  YS02001791           JUNCTION        0.84          1.920        0.000
  YS02001793           JUNCTION        1.05          1.861        0.739
  
  
  *********************
  Node Flooding Summary
  *********************
  
  Flooding refers to all water that overflows a node, whether it ponds or not.
  --------------------------------------------------------------------------
                                                             Total   Maximum
                                 Maximum   Time of Max       Flood    Ponded
                        Hours       Rate    Occurrence      Volume     Depth
  Node                 Flooded       LPS   days hr:min    10^6 ltr    Meters
  --------------------------------------------------------------------------
  WS02006249              0.11    107.93      0  03:18       0.024     0.000
  WS02006256              3.30    791.09      0  03:20       3.861     0.000
  YS02001751              0.01    181.37      0  02:20       0.000     0.000
  YS02001779              2.03    163.61      0  03:07       0.408     0.000
  YS02001629              0.01     21.01      0  02:35       0.000     0.000
  YS02001644              4.57    801.66      0  03:04       5.697     0.000
  YS02001649              0.03     32.44      0  02:54       0.001     0.000
  YS02001625              0.05     18.46      0  02:35       0.001     0.000
  YS02001790              0.01    237.70      0  03:10       0.000     0.000
  YS02001791              0.01    223.54      0  03:09       0.000     0.000
  JK-storage              0.60    613.82      0  02:19       0.704     0.000
  
  
  **********************
  Storage Volume Summary
  **********************
  
  --------------------------------------------------------------------------------------------------
                         Average     Avg  Evap Exfil       Maximum     Max    Time of Max    Maximum
                          Volume    Pcnt  Pcnt  Pcnt        Volume    Pcnt     Occurrence    Outflow
  Storage Unit           1000 m3    Full  Loss  Loss       1000 m3    Full    days hr:min        LPS
  --------------------------------------------------------------------------------------------------
  JK-storage               0.101      35     0     0         0.291     100       0  02:11     983.00
  CC-storage               3.150      20     0     0         3.842      24       0  03:44     399.86
  XR-storage               0.480      52     0     0         0.862      93       0  04:23     380.00
  
  
  ***********************
  Outfall Loading Summary
  ***********************
  
  ---------------------------------------------------------------------------------------------------------------------------------
                         Flow       Avg       Max       Total         Total         Total         Total         Total         Total
                         Freq      Flow      Flow      Volume           COD            SS            TN            TP         NH4-N
  Outfall Node           Pcnt       LPS       LPS    10^6 ltr            kg            kg            kg            kg            kg
  ---------------------------------------------------------------------------------------------------------------------------------
  WSC                   99.98    665.60    983.10      17.322      2183.548      3600.223       169.627        20.581       104.331
  ---------------------------------------------------------------------------------------------------------------------------------
  System                99.98    665.60    983.10      17.322      2183.548      3600.223       169.627        20.581       104.331
  
  
  ********************
  Link Flow Summary
  ********************
  
  -----------------------------------------------------------------------------
                                 Maximum  Time of Max   Maximum    Max/    Max/
                                  |Flow|   Occurrence   |Veloc|    Full    Full
  Link                 Type          LPS  days hr:min     m/sec    Flow   Depth
  -----------------------------------------------------------------------------
  WS02003066WSF200     CONDUIT    581.29     0  03:28      2.79    0.10    0.24
  WS02006287WS02006284 CONDUIT    211.51     0  02:09      1.64    0.10    0.22
  WS02006284WS02006280 CONDUIT    211.61     0  02:09      1.88    0.09    0.20
  WS02006280WS02006229 CONDUIT    211.61     0  02:09      3.02    0.05    0.14
  WS02006229WS02006228 CONDUIT    587.83     0  03:19      1.17    1.95    1.00
  WS02006256WS02006235 CONDUIT    288.92     0  00:00      4.23    3.06    1.00
  WS02006253WS02006251 CONDUIT     84.30     0  03:16      0.50    0.25    1.00
  WS02006252WS02006251 CONDUIT    400.61     0  03:20      3.19    1.47    1.00
  WS02006251WS02006249 CONDUIT    411.03     0  03:20      1.11    1.19    1.00
  WS02006249WS02006248 CONDUIT    363.56     0  05:50      1.14    1.99    1.00
  WS02006248WS02006247 CONDUIT    349.48     0  05:50      1.08    0.76    1.00
  WS02006247WS02006245 CONDUIT    330.81     0  05:50      1.02    2.62    1.00
  WS02006245WS02006243 CONDUIT    316.99     0  03:24      1.05    0.94    1.00
  WS02006243WS02006242 CONDUIT    316.96     0  03:24      0.94    0.68    1.00
  WS02006242WS02006240 CONDUIT    317.01     0  03:24      0.91    1.26    1.00
  WS02006240WS02006239 CONDUIT    317.38     0  03:24      0.98    1.00    1.00
  WS02006239WS02006238 CONDUIT    317.17     0  03:24      0.87    1.01    1.00
  WS02006238WS02006235 CONDUIT    317.58     0  03:24      1.45    0.71    1.00
  WS02006235WS02006234 CONDUIT    509.94     0  03:24      1.33    5.38    1.00
  WS02006234WS02006232 CONDUIT    509.35     0  03:24      1.39    1.03    1.00
  WS02006232WS02006231 CONDUIT    509.33     0  03:24      1.32    1.07    1.00
  WS02006231WS02006230 CONDUIT    509.34     0  03:24      1.41    7.73    1.00
  WS02006230WS02006229 CONDUIT    519.61     0  03:24      1.35   11.56    1.00
  WS02006228WS02006109 CONDUIT    587.74     0  03:19      1.17    2.57    1.00
  WS02006116WS02004401 CONDUIT    585.15     0  03:23      1.00    0.81    0.88
  WS02006115WS02006116 CONDUIT    586.54     0  03:23      1.02    0.75    0.80
  WS02006113WS02006111 CONDUIT    617.42     0  03:19      2.55    0.74    0.49
  WS02006112WS02006115 CONDUIT    597.73     0  03:20      0.82    0.35    0.89
  WS02006111WS02006112 CONDUIT    594.52     0  03:19      1.63    0.28    0.68
  WS02006110WS02006113 CONDUIT    589.38     0  03:19      1.37    0.54    0.80
  WS02006109WS02006110 CONDUIT    588.81     0  03:19      1.17    1.13    1.00
  WS02004411WS02004412 CONDUIT    581.47     0  03:27      0.96    0.83    0.72
  WS02004401WS02004402 CONDUIT    584.59     0  03:23      1.00    0.70    0.90
  WS02004413WS02003067 CONDUIT    581.23     0  03:28      1.16    0.25    0.61
  WS02004412WS02004413 CONDUIT    581.29     0  03:27      0.86    0.39    0.80
  WS02004410WS02004411 CONDUIT    581.55     0  03:27      0.97    0.79    0.71
  WS02004409WS02004410 CONDUIT    581.89     0  03:27      0.99    0.75    0.70
  WS02004407WS02004409 CONDUIT    583.35     0  03:24      1.50    0.21    0.50
  WS02004406WS02004407 CONDUIT    583.61     0  03:24      1.09    0.26    0.64
  WS02004405WS02004406 CONDUIT    583.92     0  03:24      1.10    1.15    0.98
  WS02004404WS02004405 CONDUIT    583.80     0  03:24      1.15    5.72    0.99
  WS02004403WS02004404 CONDUIT    583.81     0  03:24      0.98    0.42    0.96
  WS02004402WS02004403 CONDUIT    584.05     0  03:24      1.02    0.84    0.92
  WS02004139WS02001211 CONDUIT    381.68     0  04:00      0.90    0.48    0.60
  WS02004138WS02004139 CONDUIT    395.52     0  00:00      3.64    0.08    0.44
  WS02003067WS02003066 CONDUIT    581.28     0  03:28      1.26    0.19    0.43
  WS02001213WS02003059 CONDUIT    394.94     0  03:59      0.89    0.65    0.78
  WS02001212WS02001213 CONDUIT    392.22     0  03:59      1.32    0.61    0.48
  WS02001211WS02001212 CONDUIT    390.62     0  04:00      0.78    0.30    0.66
  WS02003072WS02003073 CONDUIT    981.39     0  03:30      1.75    2.12    0.50
  WS02003069WS02003072 CONDUIT    981.45     0  03:30      1.65    0.47    0.52
  WS02003060WS02003069 CONDUIT    981.29     0  03:29      1.89    0.38    0.47
  WS02003059WS02003060 CONDUIT    398.74     0  03:59      0.95    0.26    0.67
  HS02004901HS02004770 CONDUIT     10.06     0  01:36      0.07    0.04    0.32
  HS02004876HS02004881 CONDUIT     38.77     0  02:08      0.61    0.41    0.09
  HS02004870HS02004876 CONDUIT     31.06     0  02:08      0.43    0.02    0.10
  HS02004842HS02004848 CONDUIT      7.32     0  02:10      0.04    0.00    0.28
  HS02004837HS02004842 CONDUIT      7.42     0  02:12      0.42    0.00    0.29
  HS02004830HS02004837 CONDUIT     26.84     0  02:08      0.47    0.03    0.08
  HS02004824HS02004830 CONDUIT     26.99     0  02:09      0.49    0.04    0.08
  HS02004817HS02004824 CONDUIT     48.46     0  02:09      0.17    0.02    0.41
  HS02004770HS02004777 CONDUIT     51.98     0  01:35      0.24    0.10    0.33
  HS02004799HS02004480 CONDUIT    130.65     0  01:37      0.59    0.17    0.31
  HS02004792HS02004799 CONDUIT    119.17     0  01:37      0.68    0.07    0.25
  HS02004788HS02004792 CONDUIT     69.38     0  01:38      0.83    0.05    0.12
  HS02004785HS02004788 CONDUIT     51.88     0  01:38      0.51    0.39    0.14
  HS02004777HS02004785 CONDUIT     51.77     0  01:37      0.27    0.06    0.27
  HS02004480HS02004478 CONDUIT    154.63     0  01:38      0.96    0.65    0.23
  HS02004479HS02004480 CONDUIT     24.37     0  01:40      0.35    0.02    0.31
  HS02004862HS02004870 CONDUIT     23.48     0  02:08      0.50    0.03    0.07
  HS02004848HS02004852 CONDUIT     10.11     0  02:08      0.34    0.01    0.04
  HS02004856HS02004862 CONDUIT     15.79     0  02:08      0.36    0.02    0.06
  HS02004852HS02004856 CONDUIT     10.10     0  02:09      0.15    0.01    0.10
  HS02004802HS02004478 CONDUIT     63.02     0  02:11      0.35    0.06    0.26
  HS02004478WS02006287 CONDUIT    211.51     0  02:08      1.33    0.06    0.18
  HS02004817HS02004807 CONDUIT     49.16     0  02:11      0.13    0.03    0.53
  HS02004807HS02004802 CONDUIT     62.92     0  02:10      0.29    0.12    0.31
  YS02001759YS02001757 CONDUIT    425.76     0  02:29      0.54    0.30    1.00
  YS02001762YS02001759 CONDUIT    237.19     0  02:29      0.30    0.27    1.00
  YS02001765YS02001762 CONDUIT    232.69     0  02:29      0.31    0.22    1.00
  YS02001770YS02001767 CONDUIT    222.26     0  02:29      0.39    0.88    1.00
  YS02001774YS02001770 CONDUIT    163.27     0  03:07      0.31    0.10    1.00
  YS02001779YS02001774 CONDUIT    163.70     0  03:07      0.21    0.08    1.00
  YS02001649YS02001757 CONDUIT    630.26     0  02:27      0.80    0.38    1.00
  YS02001767YS02001765 CONDUIT    227.51     0  02:29      0.38    0.29    1.00
  YS02006561YS02001783 CONDUIT    678.11     0  02:57      2.13    0.35    0.73
  YS02001783YS02001784 CONDUIT    674.79     0  02:57      1.58    0.93    1.00
  YS02001784YS02001785 CONDUIT    676.30     0  02:30      1.71    1.57    1.00
  YS02001788YS02001790 CONDUIT    772.07     0  02:29      2.25    0.57    1.00
  YS02001790YS02001791 CONDUIT    811.83     0  02:30      2.69    0.88    1.00
  YS02001791YS02001793 CONDUIT    859.42     0  02:30      5.53    0.37    1.00
  YS02001910YS02001907 CONDUIT    245.02     0  02:56      0.49    0.14    0.92
  YS02001786YS02001788 CONDUIT    713.81     0  02:30      2.16    1.38    1.00
  YS02001915YS02001910 CONDUIT    245.13     0  02:58      0.62    0.12    0.72
  YS02001918YS02001915 CONDUIT     94.03     0  02:57      0.44    0.05    0.44
  YS02001923YS02001920 CONDUIT     76.85     0  03:01      0.61    0.03    0.23
  YS02001926YS02001923 CONDUIT     76.81     0  03:01      0.70    0.11    0.20
  YS02001929YS02001926 CONDUIT     76.80     0  03:01      0.75    0.04    0.19
  YS02001920YS02001918 CONDUIT     87.75     0  02:58      0.61    0.08    0.30
  YS02001629YS02163301 CONDUIT    168.28     0  02:32      0.21    0.21    1.00
  YS02001619YS02001622 CONDUIT    155.20     0  02:21      0.64    0.23    1.00
  YS02001622YS02001625 CONDUIT    187.31     0  02:17      0.42    0.10    1.00
  YS02001625YS02001629 CONDUIT    187.29     0  02:17      0.25    0.09    1.00
  YS02163301YS02001633 CONDUIT    171.55     0  02:32      0.22    0.16    1.00
  YS02163601YS02164001 CONDUIT    323.40     0  02:32      0.41    0.29    1.00
  YS02164001YS02001641 CONDUIT    322.02     0  02:32      0.41    0.44    1.00
  YS02001641YS02001644 CONDUIT    325.25     0  02:32      0.41    1.05    1.00
  YS02001647YS02001649 CONDUIT    475.97     0  02:32      0.61    0.25    1.00
  YS02006553YS02006556 CONDUIT    476.82     0  02:56      0.61    0.41    1.00
  YS02006556YS02006558 CONDUIT    494.85     0  02:55      0.63    0.39    1.00
  YSB6556YSB1171       CONDUIT     13.72     0  02:08      0.09    0.01    0.58
  YS02001907YS02006553 CONDUIT    474.35     0  02:56      0.53    0.56    1.00
  YS02006558YS02006561 CONDUIT    702.70     0  02:50      3.20    1.55    0.76
  YS02001633YS02163601 CONDUIT    322.33     0  02:32      0.41    0.34    1.00
  YS02001644YS02001647 CONDUIT    474.12     0  02:32      0.60    0.28    1.00
  YS02001745YS02001748 CONDUIT    359.97     0  02:34      1.46    0.14    0.94
  YS02001748YS02001751 CONDUIT    357.72     0  02:20      1.10    0.18    1.00
  YS02001751YS02001754 CONDUIT    196.21     0  02:17      0.95    0.09    1.00
  YS02001754YS02001757 CONDUIT    199.33     0  02:18      0.33    0.08    1.00
  YS02001882YS02001884 CONDUIT     13.56     0  02:22      0.15    0.02    0.66
  YS02001884YS02001887 CONDUIT     20.73     0  03:09      0.11    0.03    0.76
  YS02001890YS02001895 CONDUIT    251.29     0  02:35      0.42    0.12    0.73
  YS02001895YS02001898 CONDUIT    250.21     0  02:34      0.55    0.43    0.59
  YS02001898YS02001901 CONDUIT    252.00     0  02:35      0.46    0.16    0.67
  YS02001901YS02001904 CONDUIT    252.88     0  02:34      0.43    0.39    0.72
  YS02001904YS02001907 CONDUIT    255.08     0  02:33      0.36    0.09    0.85
  YS02001887YS02001890 CONDUIT    245.20     0  02:34      0.36    0.42    0.81
  YS02001652YS02001649 CONDUIT    241.54     0  02:27      0.68    0.12    1.00
  YS02001655YS02001652 CONDUIT    242.05     0  02:27      1.03    0.12    1.00
  YS02001658YS02001655 CONDUIT    351.16     0  02:18      1.27    0.15    1.00
  YS02001661YS02001658 CONDUIT    579.56     0  02:27      1.55    0.23    1.00
  YS02001664YS02001661 CONDUIT    543.64     0  02:46      1.40    0.17    0.72
  YSB1154YSB6556       CONDUIT     13.71     0  02:07      0.16    0.02    0.47
  YSB1174YSB1171       CONDUIT     11.35     0  01:35      0.06    0.02    0.58
  YSB1171HS02004479    CONDUIT     24.23     0  01:40      0.54    0.02    0.45
  HS02004881HS02006253 CONDUIT     42.78     0  02:08      1.73    0.01    0.51
  YS02001793JiankangQianchi CONDUIT    877.13     0  03:08     17.35    0.07    1.00
  YS02001757CaochengTiaoxuchi CONDUIT   1148.12     0  02:41      1.59    0.50    1.00
  WSF200WS02003060     CONDUIT    581.43     0  03:28      1.63    0.13    0.35
  1                    CONDUIT    983.10     0  03:31      3.31    0.34    0.40
  CC-Pump-1            PUMP       200.00     0  03:00              1.00
  CC-Pump-2            PUMP       199.86     0  03:20              1.00
  JK-Pump-1            PUMP       300.00     0  00:00              1.00
  JK-Pump-2            PUMP       683.00     0  02:30              1.00
  XR-Pump-1            PUMP        95.00     0  00:00              1.00
  XR-Pump-2            PUMP        95.00     0  00:00              1.00
  XR-Pump-3            PUMP        95.00     0  00:00              1.00
  XR-Pump-4            PUMP        95.00     0  00:00              1.00
  
  
  ***************************
  Flow Classification Summary
  ***************************
  
  -------------------------------------------------------------------------------------
                      Adjusted    ---------- Fraction of Time in Flow Class ---------- 
                       /Actual         Up    Down  Sub   Sup   Up    Down  Norm  Inlet 
  Conduit               Length    Dry  Dry   Dry   Crit  Crit  Crit  Crit  Ltd   Ctrl  
  -------------------------------------------------------------------------------------
  WS02003066WSF200        1.00   0.01  0.02  0.00  0.00  0.97  0.00  0.00  0.79  0.00
  WS02006287WS02006284    1.00   0.03  0.01  0.00  0.57  0.38  0.00  0.00  0.73  0.00
  WS02006284WS02006280    1.00   0.04  0.00  0.00  0.00  0.00  0.00  0.96  0.00  0.00
  WS02006280WS02006229    1.00   0.04  0.00  0.00  0.00  0.00  0.00  0.96  0.00  0.00
  WS02006229WS02006228    1.00   0.00  0.00  0.00  0.99  0.00  0.00  0.00  0.00  0.00
  WS02006256WS02006235    1.00   0.00  0.00  0.00  0.99  0.01  0.00  0.00  0.00  0.00
  WS02006253WS02006251    1.00   0.02  0.02  0.00  0.95  0.00  0.01  0.00  0.00  0.00
  WS02006252WS02006251    1.00   0.23  0.00  0.00  0.02  0.00  0.75  0.00  0.00  0.00
  WS02006251WS02006249    1.00   0.00  0.00  0.00  1.00  0.00  0.00  0.00  0.39  0.00
  WS02006249WS02006248    1.00   0.00  0.01  0.00  0.80  0.00  0.19  0.00  0.00  0.00
  WS02006248WS02006247    1.00   0.01  0.00  0.00  0.99  0.00  0.00  0.01  0.36  0.00
  WS02006247WS02006245    1.00   0.01  0.00  0.00  0.98  0.00  0.00  0.02  0.00  0.00
  WS02006245WS02006243    1.00   0.00  0.00  0.00  0.93  0.00  0.00  0.07  0.00  0.00
  WS02006243WS02006242    1.00   0.00  0.00  0.00  0.99  0.00  0.00  0.01  0.41  0.00
  WS02006242WS02006240    1.00   0.00  0.00  0.00  0.99  0.00  0.01  0.00  0.00  0.00
  WS02006240WS02006239    1.00   0.00  0.00  0.00  0.89  0.00  0.00  0.11  0.02  0.00
  WS02006239WS02006238    1.00   0.00  0.00  0.00  1.00  0.00  0.00  0.00  0.15  0.00
  WS02006238WS02006235    1.00   0.00  0.00  0.00  1.00  0.00  0.00  0.00  0.00  0.00
  WS02006235WS02006234    1.00   0.00  0.00  0.00  0.94  0.00  0.06  0.00  0.00  0.00
  WS02006234WS02006232    1.00   0.00  0.00  0.00  1.00  0.00  0.00  0.00  0.07  0.00
  WS02006232WS02006231    1.00   0.00  0.00  0.00  0.99  0.00  0.01  0.00  0.00  0.00
  WS02006231WS02006230    1.00   0.00  0.00  0.00  0.66  0.00  0.34  0.00  0.00  0.00
  WS02006230WS02006229    1.00   0.00  0.00  0.00  0.99  0.00  0.00  0.01  0.01  0.00
  WS02006228WS02006109    1.00   0.00  0.00  0.00  1.00  0.00  0.00  0.00  0.01  0.00
  WS02006116WS02004401    1.00   0.01  0.00  0.00  0.99  0.00  0.00  0.00  0.00  0.00
  WS02006115WS02006116    1.00   0.01  0.00  0.00  0.99  0.00  0.00  0.00  0.00  0.00
  WS02006113WS02006111    1.00   0.01  0.00  0.00  0.00  0.99  0.00  0.00  0.18  0.00
  WS02006112WS02006115    1.00   0.01  0.00  0.00  0.99  0.00  0.00  0.00  0.00  0.00
  WS02006111WS02006112    1.00   0.01  0.00  0.00  0.99  0.00  0.00  0.00  0.98  0.00
  WS02006110WS02006113    1.00   0.00  0.00  0.00  0.99  0.00  0.00  0.00  0.00  0.00
  WS02006109WS02006110    1.00   0.00  0.00  0.00  0.99  0.00  0.00  0.00  0.00  0.00
  WS02004411WS02004412    1.00   0.02  0.00  0.00  0.98  0.00  0.00  0.00  0.00  0.00
  WS02004401WS02004402    1.00   0.01  0.00  0.00  0.99  0.00  0.00  0.00  0.00  0.00
  WS02004413WS02003067    1.00   0.02  0.01  0.00  0.00  0.00  0.97  0.00  0.00  0.00
  WS02004412WS02004413    1.00   0.02  0.00  0.00  0.98  0.00  0.00  0.00  0.01  0.00
  WS02004410WS02004411    1.00   0.02  0.00  0.00  0.98  0.00  0.00  0.00  0.00  0.00
  WS02004409WS02004410    1.00   0.02  0.00  0.00  0.98  0.00  0.00  0.00  0.01  0.00
  WS02004407WS02004409    1.00   0.02  0.00  0.00  0.98  0.00  0.00  0.00  0.95  0.00
  WS02004406WS02004407    1.00   0.00  0.02  0.00  0.98  0.00  0.00  0.00  0.00  0.00
  WS02004405WS02004406    1.00   0.00  0.00  0.00  1.00  0.00  0.00  0.00  0.00  0.00
  WS02004404WS02004405    1.00   0.00  0.00  0.00  1.00  0.00  0.00  0.00  0.00  0.00
  WS02004403WS02004404    1.00   0.00  0.01  0.00  0.99  0.00  0.00  0.00  0.00  0.00
  WS02004402WS02004403    1.00   0.01  0.00  0.00  0.99  0.00  0.00  0.00  0.00  0.00
  WS02004139WS02001211    1.00   0.00  0.00  0.00  1.00  0.00  0.00  0.00  0.00  0.00
  WS02004138WS02004139    1.00   0.00  0.00  0.00  1.00  0.00  0.00  0.00  1.00  0.00
  WS02003067WS02003066    1.00   0.03  0.00  0.00  0.97  0.00  0.00  0.00  0.00  0.00
  WS02001213WS02003059    1.00   0.00  0.00  0.00  1.00  0.00  0.00  0.00  0.00  0.00
  WS02001212WS02001213    1.00   0.00  0.00  0.00  0.92  0.00  0.08  0.00  0.00  0.00
  WS02001211WS02001212    1.00   0.00  0.00  0.00  1.00  0.00  0.00  0.00  0.00  0.00
  WS02003072WS02003073    1.00   0.00  0.00  0.00  0.00  0.00  0.00  1.00  0.00  0.00
  WS02003069WS02003072    1.00   0.00  0.00  0.00  1.00  0.00  0.00  0.00  0.10  0.00
  WS02003060WS02003069    1.00   0.00  0.00  0.00  0.99  0.01  0.00  0.00  0.08  0.00
  WS02003059WS02003060    1.00   0.00  0.00  0.00  1.00  0.00  0.00  0.00  0.01  0.00
  HS02004901HS02004770    1.00   0.04  0.00  0.00  0.96  0.00  0.00  0.00  0.00  0.00
  HS02004876HS02004881    1.00   0.01  0.00  0.00  0.99  0.00  0.00  0.00  0.00  0.00
  HS02004870HS02004876    1.00   0.00  0.00  0.00  0.99  0.00  0.00  0.00  0.95  0.00
  HS02004842HS02004848    1.00   0.00  0.04  0.00  0.96  0.00  0.00  0.00  0.59  0.00
  HS02004837HS02004842    1.00   0.00  0.00  0.00  1.00  0.00  0.00  0.00  0.11  0.00
  HS02004830HS02004837    1.00   0.00  0.00  0.00  1.00  0.00  0.00  0.00  0.99  0.00
  HS02004824HS02004830    1.00   0.00  0.00  0.00  1.00  0.00  0.00  0.00  0.00  0.00
  HS02004817HS02004824    1.00   0.00  0.00  0.00  1.00  0.00  0.00  0.00  1.00  0.00
  HS02004770HS02004777    1.00   0.00  0.04  0.00  0.96  0.00  0.00  0.00  0.02  0.00
  HS02004799HS02004480    1.00   0.00  0.01  0.00  0.95  0.00  0.03  0.00  0.00  0.00
  HS02004792HS02004799    1.00   0.00  0.00  0.00  0.99  0.01  0.00  0.00  0.98  0.00
  HS02004788HS02004792    1.00   0.00  0.00  0.00  1.00  0.00  0.00  0.00  0.98  0.00
  HS02004785HS02004788    1.00   0.00  0.00  0.00  1.00  0.00  0.00  0.00  0.00  0.00
  HS02004777HS02004785    1.00   0.00  0.00  0.00  1.00  0.00  0.00  0.00  0.11  0.00
  HS02004480HS02004478    1.00   0.04  0.00  0.00  0.63  0.00  0.00  0.33  0.00  0.00
  HS02004479HS02004480    1.00   0.02  0.00  0.00  0.98  0.00  0.00  0.00  0.11  0.00
  HS02004862HS02004870    1.00   0.00  0.00  0.00  1.00  0.00  0.00  0.00  0.03  0.00
  HS02004848HS02004852    1.00   0.04  0.00  0.00  0.96  0.00  0.00  0.00  0.79  0.00
  HS02004856HS02004862    1.00   0.00  0.05  0.00  0.95  0.00  0.00  0.00  0.84  0.00
  HS02004852HS02004856    1.00   0.04  0.00  0.00  0.96  0.00  0.00  0.00  0.86  0.00
  HS02004802HS02004478    1.00   0.04  0.00  0.00  0.96  0.00  0.00  0.00  0.02  0.00
  HS02004478WS02006287    1.00   0.05  0.00  0.00  0.76  0.19  0.00  0.00  0.72  0.00
  HS02004817HS02004807    1.00   0.00  0.04  0.00  0.96  0.00  0.00  0.00  0.01  0.00
  HS02004807HS02004802    1.00   0.04  0.00  0.00  0.95  0.00  0.00  0.00  0.00  0.00
  YS02001759YS02001757    1.00   0.00  0.00  0.00  1.00  0.00  0.00  0.00  0.15  0.00
  YS02001762YS02001759    1.00   0.00  0.00  0.00  1.00  0.00  0.00  0.00  0.02  0.00
  YS02001765YS02001762    1.00   0.00  0.00  0.00  1.00  0.00  0.00  0.00  0.13  0.00
  YS02001770YS02001767    1.00   0.00  0.00  0.00  1.00  0.00  0.00  0.00  0.00  0.00
  YS02001774YS02001770    1.00   0.00  0.04  0.00  0.96  0.00  0.00  0.00  0.02  0.00
  YS02001779YS02001774    1.00   0.00  0.00  0.00  1.00  0.00  0.00  0.00  0.17  0.00
  YS02001649YS02001757    1.00   0.00  0.00  0.00  1.00  0.00  0.00  0.00  0.15  0.00
  YS02001767YS02001765    1.00   0.00  0.00  0.00  1.00  0.00  0.00  0.00  0.00  0.00
  YS02006561YS02001783    1.00   0.05  0.00  0.00  0.10  0.85  0.00  0.00  0.61  0.00
  YS02001783YS02001784    1.00   0.00  0.06  0.00  0.94  0.00  0.00  0.00  0.00  0.00
  YS02001784YS02001785    1.00   0.00  0.00  0.00  1.00  0.00  0.00  0.00  0.16  0.00
  YS02001788YS02001790    1.00   0.00  0.00  0.00  0.17  0.83  0.00  0.00  0.56  0.00
  YS02001790YS02001791    1.00   0.00  0.00  0.00  0.15  0.85  0.00  0.00  0.62  0.00
  YS02001791YS02001793    1.00   0.00  0.00  0.00  0.21  0.79  0.00  0.00  0.06  0.00
  YS02001910YS02001907    1.00   0.00  0.00  0.00  0.99  0.00  0.00  0.01  0.12  0.00
  YS02001786YS02001788    1.00   0.00  0.00  0.00  0.17  0.83  0.00  0.00  0.00  0.00
  YS02001915YS02001910    1.00   0.00  0.00  0.00  0.99  0.01  0.00  0.00  0.13  0.00
  YS02001918YS02001915    1.00   0.00  0.00  0.00  0.99  0.01  0.00  0.00  0.63  0.00
  YS02001923YS02001920    1.00   0.00  0.00  0.00  1.00  0.00  0.00  0.00  1.00  0.00
  YS02001926YS02001923    1.00   0.00  0.03  0.00  0.00  0.00  0.97  0.00  0.00  0.00
  YS02001929YS02001926    1.00   0.00  0.04  0.00  0.96  0.00  0.00  0.00  0.87  0.00
  YS02001920YS02001918    1.00   0.00  0.00  0.00  1.00  0.00  0.00  0.00  0.00  0.00
  YS02001629YS02163301    1.00   0.05  0.00  0.00  0.95  0.00  0.00  0.00  0.00  0.00
  YS02001619YS02001622    1.00   0.04  0.00  0.00  0.96  0.00  0.00  0.00  0.00  0.00
  YS02001622YS02001625    1.00   0.04  0.00  0.00  0.96  0.00  0.00  0.00  0.03  0.00
  YS02001625YS02001629    1.00   0.04  0.01  0.00  0.93  0.00  0.02  0.00  0.00  0.00
  YS02163301YS02001633    1.00   0.00  0.05  0.00  0.95  0.00  0.00  0.00  0.00  0.00
  YS02163601YS02164001    1.00   0.00  0.03  0.00  0.97  0.00  0.00  0.00  0.00  0.00
  YS02164001YS02001641    1.00   0.00  0.03  0.00  0.97  0.00  0.00  0.00  0.05  0.00
  YS02001641YS02001644    1.00   0.00  0.00  0.00  1.00  0.00  0.00  0.00  0.00  0.00
  YS02001647YS02001649    1.00   0.00  0.05  0.00  0.95  0.00  0.00  0.00  0.01  0.00
  YS02006553YS02006556    1.00   0.01  0.00  0.00  0.99  0.00  0.00  0.00  0.03  0.00
  YS02006556YS02006558    1.00   0.00  0.00  0.00  1.00  0.00  0.00  0.00  0.00  0.00
  YSB6556YSB1171          1.00   0.02  0.02  0.00  0.96  0.00  0.00  0.00  0.00  0.00
  YS02001907YS02006553    1.00   0.00  0.01  0.00  0.99  0.00  0.00  0.00  0.00  0.00
  YS02006558YS02006561    1.00   0.05  0.00  0.00  0.00  0.95  0.00  0.00  0.62  0.00
  YS02001633YS02163601    1.00   0.00  0.00  0.00  1.00  0.00  0.00  0.00  0.14  0.00
  YS02001644YS02001647    1.00   0.00  0.05  0.00  0.95  0.00  0.00  0.00  0.00  0.00
  YS02001745YS02001748    1.00   0.00  0.00  0.00  0.90  0.01  0.00  0.09  0.05  0.00
  YS02001748YS02001751    1.00   0.00  0.00  0.00  0.97  0.03  0.00  0.00  0.14  0.00
  YS02001751YS02001754    1.00   0.00  0.00  0.00  0.94  0.00  0.00  0.06  0.02  0.00
  YS02001754YS02001757    1.00   0.00  0.00  0.00  1.00  0.00  0.00  0.00  0.17  0.00
  YS02001882YS02001884    1.00   0.05  0.00  0.00  0.95  0.00  0.00  0.00  0.00  0.00
  YS02001884YS02001887    1.00   0.02  0.01  0.00  0.96  0.00  0.00  0.00  0.00  0.00
  YS02001890YS02001895    1.00   0.00  0.05  0.00  0.95  0.00  0.00  0.00  0.00  0.00
  YS02001895YS02001898    1.00   0.05  0.00  0.00  0.94  0.00  0.01  0.00  0.00  0.00
  YS02001898YS02001901    1.00   0.05  0.00  0.00  0.95  0.00  0.00  0.00  0.01  0.00
  YS02001901YS02001904    1.00   0.05  0.00  0.00  0.95  0.00  0.00  0.00  0.00  0.00
  YS02001904YS02001907    1.00   0.00  0.05  0.00  0.95  0.00  0.00  0.00  0.00  0.00
  YS02001887YS02001890    1.00   0.00  0.00  0.00  0.99  0.00  0.01  0.00  0.00  0.00
  YS02001652YS02001649    1.00   0.00  0.00  0.00  1.00  0.00  0.00  0.00  0.15  0.00
  YS02001655YS02001652    1.00   0.00  0.00  0.00  0.94  0.00  0.00  0.06  0.02  0.00
  YS02001658YS02001655    1.00   0.00  0.04  0.00  0.93  0.03  0.00  0.00  0.06  0.00
  YS02001661YS02001658    1.00   0.04  0.00  0.00  0.90  0.05  0.00  0.00  0.07  0.00
  YS02001664YS02001661    1.00   0.04  0.00  0.00  0.90  0.06  0.00  0.00  0.19  0.00
  YSB1154YSB6556          1.00   0.04  0.00  0.00  0.96  0.00  0.00  0.00  0.01  0.00
  YSB1174YSB1171          1.00   0.02  0.01  0.00  0.97  0.00  0.00  0.00  0.00  0.00
  YSB1171HS02004479       1.00   0.02  0.00  0.00  0.98  0.00  0.00  0.00  0.10  0.00
  HS02004881HS02006253    1.00   0.02  0.00  0.00  0.46  0.02  0.00  0.50  0.25  0.00
  YS02001793JiankangQianchi    1.00   0.00  0.00  0.00  0.60  0.40  0.00  0.00  0.50  0.00
  YS02001757CaochengTiaoxuchi    1.00   0.00  0.07  0.00  0.93  0.00  0.00  0.00  0.00  0.00
  WSF200WS02003060        1.00   0.00  0.01  0.00  0.99  0.00  0.00  0.00  0.62  0.00
  1                       1.00   0.00  0.00  0.00  0.00  1.00  0.00  0.00  0.54  0.00
  
  
  *************************
  Conduit Surcharge Summary
  *************************
  
  ----------------------------------------------------------------------------
                                                           Hours        Hours 
                         --------- Hours Full --------   Above Full   Capacity
  Conduit                Both Ends  Upstream  Dnstream   Normal Flow   Limited
  ----------------------------------------------------------------------------
  WS02006229WS02006228        2.17      2.32      2.17      3.50         2.17
  WS02006256WS02006235        4.74      4.75      6.81      3.88         0.01
  WS02006253WS02006251        0.23      0.23      0.27      0.01         0.01
  WS02006252WS02006251        0.18      0.18      0.38      0.32         0.01
  WS02006251WS02006249        0.24      0.24      0.28      0.12         0.08
  WS02006249WS02006248        0.25      0.25      0.28      1.46         0.01
  WS02006248WS02006247        0.27      0.27      0.35      0.01         0.01
  WS02006247WS02006245        0.35      0.36      0.35      2.00         0.34
  WS02006245WS02006243        0.36      0.36      0.40      0.01         0.02
  WS02006243WS02006242        0.41      0.41      0.73      0.01         0.01
  WS02006242WS02006240        0.53      0.53      0.97      0.37         0.01
  WS02006240WS02006239        0.63      0.63      0.88      0.01         0.08
  WS02006239WS02006238        1.14      1.14      1.34      0.10         0.08
  WS02006238WS02006235        1.32      1.32      1.51      0.01         0.01
  WS02006235WS02006234        0.89      0.90      1.23      4.59         0.01
  WS02006234WS02006232        1.08      1.08      1.61      0.15         0.13
  WS02006232WS02006231        0.30      0.30      1.61      0.19         0.01
  WS02006231WS02006230        0.19      0.19      0.34      4.84         0.01
  WS02006230WS02006229        2.93      3.31      2.93      5.34         2.93
  WS02006228WS02006109        2.27      2.60      2.27      4.11         2.27
  WS02006112WS02006115        0.01      0.01      0.44      0.01         0.01
  WS02006111WS02006112        0.01      0.01      3.60      0.01         0.01
  WS02006110WS02006113        0.01      0.01      2.45      0.01         0.01
  WS02006109WS02006110        0.23      0.23      2.60      0.24         0.01
  WS02004405WS02004406        0.01      0.01      0.01      0.28         0.01
  WS02004404WS02004405        0.01      0.01      0.01      5.10         0.01
  WS02003072WS02003073        0.01      0.01      0.01      5.57         0.01
  YS02001759YS02001757        6.16      6.16      6.24      0.01         0.01
  YS02001762YS02001759        6.13      6.13      6.16      0.01         0.01
  YS02001765YS02001762        6.10      6.10      6.13      0.01         0.01
  YS02001770YS02001767        6.07      6.07      6.07      0.01         0.65
  YS02001774YS02001770        6.05      6.05      6.13      0.01         0.01
  YS02001779YS02001774        5.89      5.89      6.13      0.01         0.01
  YS02001649YS02001757        6.14      6.14      6.24      0.01         0.01
  YS02001767YS02001765        6.07      6.07      6.10      0.01         0.01
  YS02006561YS02001783        0.01      0.01      0.21      0.01         0.01
  YS02001783YS02001784        0.21      0.21      0.29      0.01         0.01
  YS02001784YS02001785        0.20      0.29      0.20      1.63         0.19
  YS02001788YS02001790        0.16      0.16      0.78      0.01         0.01
  YS02001790YS02001791        0.78      0.78      0.84      0.01         0.01
  YS02001791YS02001793        0.84      0.84      1.27      0.01         0.01
  YS02001910YS02001907        0.01      0.01      0.93      0.01         0.01
  YS02001786YS02001788        0.16      0.20      0.16      1.12         0.15
  YS02001629YS02163301        6.05      6.05      6.07      0.01         0.01
  YS02001619YS02001622        5.59      5.59      5.64      0.01         0.01
  YS02001622YS02001625        5.64      5.64      6.01      0.01         0.01
  YS02001625YS02001629        5.60      5.60      6.01      0.01         0.01
  YS02163301YS02001633        6.07      6.07      6.11      0.01         0.01
  YS02163601YS02164001        6.10      6.10      6.14      0.01         0.01
  YS02164001YS02001641        6.10      6.10      6.11      0.01         0.01
  YS02001641YS02001644        6.11      6.11      6.11      0.02         0.86
  YS02001647YS02001649        5.99      5.99      6.14      0.01         0.01
  YS02006553YS02006556        0.01      0.01      1.05      0.01         0.01
  YS02006556YS02006558        0.21      0.21      1.17      0.01         0.01
  YS02001907YS02006553        1.67      1.67      1.91      0.01         0.01
  YS02006558YS02006561        0.01      0.01      0.01      1.49         0.01
  YS02001633YS02163601        6.09      6.09      6.14      0.01         0.01
  YS02001644YS02001647        5.99      5.99      6.11      0.01         0.01
  YS02001745YS02001748        0.01      0.01      5.37      0.01         0.01
  YS02001748YS02001751        5.42      5.42      5.61      0.01         0.01
  YS02001751YS02001754        5.61      5.61      5.91      0.01         0.01
  YS02001754YS02001757        5.97      5.97      6.24      0.01         0.01
  YS02001904YS02001907        0.01      0.01      1.08      0.01         0.01
  YS02001652YS02001649        6.00      6.00      6.14      0.01         0.01
  YS02001655YS02001652        5.64      5.64      5.97      0.01         0.01
  YS02001658YS02001655        5.40      5.40      5.64      0.01         0.01
  YS02001661YS02001658        0.09      0.09      5.40      0.01         0.01
  YS02001664YS02001661        0.01      0.01      0.50      0.01         0.01
  HS02004881HS02006253        0.01      0.01      0.13      0.01         0.01
  YS02001793JiankangQianchi        1.05      1.05      3.96      0.01         0.01
  YS02001757CaochengTiaoxuchi        5.36      5.36      6.24      0.01         0.01
  
  
  ***************
  Pumping Summary
  ***************
  
  ---------------------------------------------------------------------------------------------------------
                                                  Min       Avg       Max     Total     Power    % Time Off
                        Percent   Number of      Flow      Flow      Flow    Volume     Usage    Pump Curve
  Pump                 Utilized   Start-Ups       LPS       LPS       LPS  10^6 ltr     Kw-hr    Low   High
  ---------------------------------------------------------------------------------------------------------
  CC-Pump-1               37.47           4      0.00    151.09    200.00     1.500      1.06    0.0    0.0
  CC-Pump-2                8.33           2      0.00     93.92    199.86     0.240      0.27    0.0    0.0
  JK-Pump-1               56.24           6      0.00    201.30    300.00     3.077     55.79    0.0    0.0
  JK-Pump-2               41.66           5      0.00    344.70    683.00     4.084     71.22    0.0   93.8
  XR-Pump-1              100.00           1      0.00     95.00     95.00     2.736     40.71    0.0    0.0
  XR-Pump-2               97.92           2      0.00     93.16     95.00     2.565     37.09    0.0    0.0
  XR-Pump-3               95.83           3      0.00     93.41     95.00     2.508     35.84    0.0    0.0
  XR-Pump-4               95.83           3      0.00     93.41     95.00     2.508     35.84    0.0    0.0
  
  
  ***************************
  Link Pollutant Load Summary
  ***************************
  
  ------------------------------------------------------------------------------------------
                                 COD            SS            TN            TP         NH4-N
  Link                            kg            kg            kg            kg            kg
  ------------------------------------------------------------------------------------------
  WS02003066WSF200           457.142       808.610        14.777         1.418         8.125
  WS02006287WS02006284       175.695       312.035         7.673         0.828         4.433
  WS02006284WS02006280       176.228       312.890         7.724         0.834         4.464
  WS02006280WS02006229       176.200       312.842         7.721         0.834         4.463
  WS02006229WS02006228       468.991       828.613        14.712         1.389         8.036
  WS02006256WS02006235       146.882       255.019         3.862         0.329         2.034
  WS02006253WS02006251        30.064        56.013         0.705         0.054         0.354
  WS02006252WS02006251       134.461       237.570         2.845         0.204         1.396
  WS02006251WS02006249       159.629       284.980         3.452         0.252         1.703
  WS02006249WS02006248       156.704       279.794         3.388         0.247         1.671
  WS02006248WS02006247       156.472       279.406         3.383         0.247         1.668
  WS02006247WS02006245       156.001       278.572         3.372         0.246         1.663
  WS02006245WS02006243       155.482       277.678         3.360         0.245         1.657
  WS02006243WS02006242       155.802       278.230         3.373         0.246         1.664
  WS02006242WS02006240       157.259       280.695         3.412         0.250         1.685
  WS02006240WS02006239       159.682       284.821         3.479         0.255         1.721
  WS02006239WS02006238       163.204       290.576         3.596         0.267         1.786
  WS02006238WS02006235       165.705       294.649         3.673         0.274         1.828
  WS02006235WS02006234       296.939       523.031         7.101         0.565         3.631
  WS02006234WS02006232       296.566       522.312         7.101         0.565         3.633
  WS02006232WS02006231       295.574       520.593         7.075         0.563         3.619
  WS02006231WS02006230       294.883       519.442         7.055         0.561         3.609
  WS02006230WS02006229       293.885       517.668         7.033         0.560         3.597
  WS02006228WS02006109       468.077       827.013        14.685         1.387         8.022
  WS02006116WS02004401       473.579       835.960        15.324         1.470         8.426
  WS02006115WS02006116       475.053       838.448        15.372         1.474         8.452
  WS02006113WS02006111       473.554       835.382        15.402         1.479         8.477
  WS02006112WS02006115       476.815       841.437        15.443         1.482         8.492
  WS02006111WS02006112       472.876       834.216        15.378         1.477         8.464
  WS02006110WS02006113       474.402       836.826        15.438         1.483         8.498
  WS02006109WS02006110       475.930       839.431        15.502         1.490         8.535
  WS02004411WS02004412       461.969       816.622        14.982         1.440         8.243
  WS02004401WS02004402       471.875       833.093        15.257         1.463         8.388
  WS02004413WS02003067       458.012       810.024        14.806         1.421         8.141
  WS02004412WS02004413       460.234       813.752        14.916         1.433         8.205
  WS02004410WS02004411       463.361       818.917        15.033         1.445         8.271
  WS02004409WS02004410       464.813       821.323        15.089         1.451         8.303
  WS02004407WS02004409       465.891       823.089        15.124         1.454         8.322
  WS02004406WS02004407       466.043       823.311        15.121         1.453         8.320
  WS02004405WS02004406       468.117       826.757        15.212         1.463         8.372
  WS02004404WS02004405       469.218       828.572        15.222         1.462         8.374
  WS02004403WS02004404       469.008       828.300        15.148         1.452         8.326
  WS02004402WS02004403       470.449       830.713        15.207         1.458         8.360
  WS02004139WS02001211      1553.354      2515.001       137.835        17.029        85.554
  WS02004138WS02004139      1551.199      2511.555       137.627        17.003        85.425
  WS02003067WS02003066       457.403       809.042        14.790         1.420         8.132
  WS02001213WS02003059      1604.568      2596.932       142.756        17.644        88.631
  WS02001212WS02001213      1604.818      2597.343       142.777        17.646        88.643
  WS02001211WS02001212      1605.561      2598.531       142.847        17.655        88.687
  WS02003072WS02003073      2173.367      3583.993       168.481        20.435       103.607
  WS02003069WS02003072      2177.665      3590.944       168.839        20.479       103.829
  WS02003060WS02003069      2178.329      3592.073       168.827        20.476       103.818
  WS02003059WS02003060      1606.089      2599.355       142.907        17.663        88.725
  HS02004901HS02004770         5.605        10.253         0.108         0.008         0.050
  HS02004876HS02004881        21.706        40.658         0.540         0.042         0.273
  HS02004870HS02004876        16.454        30.705         0.447         0.036         0.230
  HS02004842HS02004848         3.325         6.020         0.072         0.005         0.033
  HS02004837HS02004842         7.963        13.397         0.542         0.064         0.328
  HS02004830HS02004837        57.166        95.096         4.472         0.545         2.757
  HS02004824HS02004830        57.939        96.334         4.546         0.554         2.803
  HS02004817HS02004824        70.619       120.402         4.817         0.571         2.936
  HS02004770HS02004777        21.632        40.011         0.464         0.031         0.212
  HS02004799HS02004480        78.895       140.988         2.693         0.265         1.473
  HS02004792HS02004799        71.983       127.497         2.612         0.264         1.443
  HS02004788HS02004792        43.810        77.536         1.921         0.204         1.095
  HS02004785HS02004788        23.072        42.306         0.614         0.050         0.306
  HS02004777HS02004785        22.382        41.199         0.551         0.042         0.267
  HS02004480HS02004478        98.328       177.699         2.982         0.283         1.603
  HS02004479HS02004480        23.035        42.494         0.603         0.057         0.324
  HS02004862HS02004870        12.215        22.365         0.363         0.032         0.190
  HS02004848HS02004852         4.178         7.604         0.090         0.006         0.041
  HS02004856HS02004862         7.681        14.405         0.158         0.010         0.074
  HS02004852HS02004856         4.189         7.625         0.090         0.006         0.041
  HS02004802HS02004478        78.296       135.855         4.757         0.552         2.870
  HS02004478WS02006287       175.892       312.355         7.692         0.830         4.444
  HS02004817HS02004807        69.288       118.285         4.684         0.554         2.852
  HS02004807HS02004802        78.487       136.151         4.789         0.556         2.891
  YS02001759YS02001757       247.435       436.781         5.154         0.356         2.533
  YS02001762YS02001759       115.020       204.411         2.622         0.186         1.313
  YS02001765YS02001762       114.689       203.843         2.637         0.188         1.324
  YS02001770YS02001767       112.288       199.938         2.339         0.149         1.134
  YS02001774YS02001770        35.131        63.133         0.722         0.046         0.350
  YS02001779YS02001774        34.579        61.997         0.825         0.062         0.420
  YS02001649YS02001757       275.562       474.556         5.765         0.401         2.785
  YS02001767YS02001765       114.807       203.990         2.653         0.190         1.334
  YS02006561YS02001783       555.589       975.163        12.831         1.004         6.535
  YS02001783YS02001784       555.545       975.112        12.828         1.004         6.533
  YS02001784YS02001785       563.073       987.176        13.556         1.095         6.988
  YS02001788YS02001790       563.772       988.322        13.631         1.105         7.036
  YS02001790YS02001791       564.873       990.109        13.734         1.118         7.100
  YS02001791YS02001793       564.781       989.967        13.728         1.117         7.096
  YS02001910YS02001907       187.906       324.818         5.518         0.469         2.951
  YS02001786YS02001788       563.343       987.626        13.586         1.099         7.007
  YS02001915YS02001910       187.941       324.843         5.480         0.463         2.925
  YS02001918YS02001915        91.714       151.595         3.417         0.348         1.940
  YS02001923YS02001920        71.372       119.102         1.430         0.099         0.697
  YS02001926YS02001923        71.022       118.545         1.391         0.094         0.672
  YS02001929YS02001926        70.774       118.138         1.358         0.090         0.652
  YS02001920YS02001918        91.708       151.640         3.389         0.344         1.922
  YS02001629YS02163301        76.309       131.180         1.633         0.104         0.758
  YS02001619YS02001622        79.471       136.096         1.709         0.108         0.792
  YS02001622YS02001625        78.452       134.531         1.684         0.107         0.781
  YS02001625YS02001629        77.280       132.772         1.654         0.105         0.768
  YS02163301YS02001633        76.323       131.218         1.631         0.104         0.758
  YS02163601YS02164001       213.920       365.838         4.380         0.306         2.095
  YS02164001YS02001641       213.584       365.289         4.363         0.304         2.085
  YS02001641YS02001644       214.031       366.007         4.365         0.304         2.085
  YS02001647YS02001649       259.382       445.686         5.406         0.374         2.612
  YS02006553YS02006556       401.356       702.233         9.546         0.770         4.924
  YS02006556YS02006558       401.473       702.444         9.513         0.765         4.901
  YSB6556YSB1171              12.956        24.059         0.286         0.025         0.148
  YS02001907YS02006553       401.379       702.286         9.569         0.773         4.939
  YS02006558YS02006561       555.619       975.209        12.831         1.004         6.535
  YS02001633YS02163601       214.514       366.727         4.357         0.302         2.077
  YS02001644YS02001647       263.575       453.103         5.465         0.378         2.637
  YS02001745YS02001748       113.674       199.770         2.569         0.170         1.270
  YS02001748YS02001751       114.007       200.076         2.740         0.194         1.382
  YS02001751YS02001754       113.173       198.750         2.726         0.194         1.376
  YS02001754YS02001757       114.054       200.129         2.893         0.217         1.484
  YS02001882YS02001884         2.581         4.378         0.052         0.004         0.026
  YS02001884YS02001887         5.032         8.654         0.101         0.008         0.050
  YS02001890YS02001895       214.634       379.186         4.078         0.307         2.002
  YS02001895YS02001898       214.471       378.950         4.072         0.306         1.998
  YS02001898YS02001901       214.366       378.803         4.068         0.306         1.996
  YS02001901YS02001904       214.282       378.703         4.077         0.307         2.002
  YS02001904YS02001907       214.621       379.271         4.131         0.314         2.037
  YS02001887YS02001890       215.440       380.426         4.132         0.313         2.035
  YS02001652YS02001649        71.926       124.456         1.567         0.113         0.736
  YS02001655YS02001652        72.854       125.919         1.592         0.115         0.748
  YS02001658YS02001655        72.624       125.503         1.512         0.104         0.694
  YS02001661YS02001658        78.193       135.276         1.627         0.111         0.747
  YS02001664YS02001661        93.240       160.906         1.947         0.133         0.893
  YSB1154YSB6556              12.539        23.389         0.239         0.019         0.119
  YSB1174YSB1171               8.562        15.999         0.186         0.016         0.095
  YSB1171HS02004479           22.974        42.387         0.607         0.058         0.328
  HS02004881HS02006253        24.535        46.126         0.590         0.045         0.297
  YS02001793JiankangQianchi       566.087       992.122        13.774         1.121         7.122
  YS02001757CaochengTiaoxuchi       424.126       745.313         9.018         0.642         4.422
  WSF200WS02003060           456.767       808.010        14.770         1.418         8.122
  1                         2183.548      3600.223       169.627        20.581       104.331
  CC-Pump-1                  115.273       203.645         2.426         0.173         1.188
  CC-Pump-2                   18.841        33.371         0.394         0.028         0.193
  JK-Pump-1                  145.987       254.250         3.786         0.320         1.988
  JK-Pump-2                  238.241       421.901         5.547         0.441         2.839
  XR-Pump-1                  422.741       683.793        37.757         4.669        23.449
  XR-Pump-2                  384.807       623.100        34.120         4.215        21.177
  XR-Pump-3                  371.852       602.375        32.878         4.060        20.401
  XR-Pump-4                  371.852       602.375        32.878         4.060        20.401
  

  Analysis begun on:  Sat Jul 10 16:59:25 2021
  Analysis ended on:  Sat Jul 10 16:59:28 2021
  Total elapsed time: 00:00:03