
  EPA STORM WATER MANAGEMENT MODEL - VERSION 5.1 (Build 5.3.0.dev0)
  --------------------------------------------------------------

  WARNING 04: minimum elevation drop used for Conduit WS02004404WS02004405
  WARNING 03: negative offset ignored for Link YS02001904YS02001907
  
  *********************************************************
  NOTE: The summary statistics displayed in this report are
  based on results found at every computational time step,  
  not just on results from each reporting time step.
  *********************************************************
  
  ****************
  Analysis Options
  ****************
  Flow Units ............... LPS
  Process Models:
    Rainfall/Runoff ........ YES
    RDII ................... NO
    Snowmelt ............... NO
    Groundwater ............ NO
    Flow Routing ........... YES
    Ponding Allowed ........ NO
    Water Quality .......... YES
  Infiltration Method ...... HORTON
  Flow Routing Method ...... DYNWAVE
  Surcharge Method ......... EXTRAN
  Starting Date ............ 08/28/2015 08:00:00
  Ending Date .............. 08/28/2015 15:50:00
  Antecedent Dry Days ...... 8.0
  Report Time Step ......... 00:01:00
  Wet Time Step ............ 00:01:00
  Dry Time Step ............ 00:01:00
  Routing Time Step ........ 5.00 sec
  Variable Time Step ....... YES
  Maximum Trials ........... 8
  Number of Threads ........ 4
  Head Tolerance ........... 0.001500 m
  
  
  **************************        Volume         Depth
  Runoff Quantity Continuity     hectare-m            mm
  **************************     ---------       -------
  Total Precipitation ......         6.144        13.452
  Evaporation Loss .........         0.000         0.000
  Infiltration Loss ........         1.064         2.328
  Surface Runoff ...........         4.147         9.079
  Final Storage ............         0.935         2.047
  Continuity Error (%) .....        -0.020
  
  
  **************************           COD            SS            TN            TP         NH4-N
  Runoff Quality Continuity             kg            kg            kg            kg            kg
  **************************    ----------    ----------    ----------    ----------    ----------
  Initial Buildup ..........     41378.656     70582.865      1804.177       168.684      1032.807
  Surface Buildup ..........        21.799        40.924         2.400         0.218         1.395
  Wet Deposition ...........         0.000         0.000         0.000         0.000         0.000
  Sweeping Removal .........         0.000         0.000         0.000         0.000         0.000
  Infiltration Loss ........        97.311       184.943         1.849         0.130         0.881
  BMP Removal ..............         0.000         0.000         0.000         0.000         0.000
  Surface Runoff ...........      3769.819      7064.251        72.781         4.964        34.599
  Remaining Buildup ........     37531.916     63371.884      1731.919       163.806       998.709
  Continuity Error (%) .....         0.003         0.004         0.002         0.001         0.001
  
  
  **************************        Volume        Volume
  Flow Routing Continuity        hectare-m      10^6 ltr
  **************************     ---------     ---------
  Dry Weather Inflow .......         0.616         6.165
  Wet Weather Inflow .......         4.145        41.451
  Groundwater Inflow .......         0.000         0.000
  RDII Inflow ..............         0.000         0.000
  External Inflow ..........         0.102         1.024
  External Outflow .........         2.061        20.609
  Flooding Loss ............         2.375        23.754
  Evaporation Loss .........         0.000         0.000
  Exfiltration Loss ........         0.000         0.000
  Initial Stored Volume ....         0.076         0.761
  Final Stored Volume ......         0.624         6.245
  Continuity Error (%) .....        -2.445
  
  
  **************************           COD            SS            TN            TP         NH4-N
  Quality Routing Continuity            kg            kg            kg            kg            kg
  **************************    ----------    ----------    ----------    ----------    ----------
  Dry Weather Inflow .......      1541.201      2465.922       147.955        18.494        92.472
  Wet Weather Inflow .......      3768.982      7062.836        72.763         4.963        34.591
  Groundwater Inflow .......         0.000         0.000         0.000         0.000         0.000
  RDII Inflow ..............         0.000         0.000         0.000         0.000         0.000
  External Inflow ..........       183.418       293.469        17.608         2.201        11.005
  External Outflow .........      2446.947      4243.292       149.159        17.392        89.856
  Flooding Loss ............      2391.849      4457.896        62.404         5.503        32.939
  Exfiltration Loss ........         0.000         0.000         0.000         0.000         0.000
  Mass Reacted .............         0.000         0.000         0.000         0.000         0.000
  Initial Stored Mass ......         0.000         0.000         0.000         0.000         0.000
  Final Stored Mass ........       514.334       880.444        23.547         2.527        13.679
  Continuity Error (%) .....         2.557         2.449         1.349         0.922         1.154
  
  
  *************************
  Highest Continuity Errors
  *************************
  Node HS02004842 (13.41%)
  Node JK-storage (-11.45%)
  Node YS02001884 (11.40%)
  Node WS02006253 (2.67%)
  Node HS02004817 (2.53%)
  
  
  ***************************
  Time-Step Critical Elements
  ***************************
  Link WS02006252WS02006251 (61.01%)
  Link WS02006280WS02006229 (10.30%)
  Link WS02004404WS02004405 (7.16%)
  Link WS02006238WS02006235 (6.21%)
  Link YS02001793JiankangQianchi (4.41%)
  
  
  ********************************
  Highest Flow Instability Indexes
  ********************************
  Link WS02006113WS02006111 (39)
  Link YS02163601YS02164001 (34)
  Link YS02001629YS02163301 (33)
  Link YS02163301YS02001633 (33)
  Link YS02001619YS02001622 (33)
  
  
  *************************
  Routing Time Step Summary
  *************************
  Minimum Time Step           :     0.07 sec
  Average Time Step           :     1.12 sec
  Maximum Time Step           :     5.00 sec
  Percent in Steady State     :    -0.00
  Average Iterations per Step :     4.43
  Percent Not Converging      :    19.54
  
  
  ***************************
  Subcatchment Runoff Summary
  ***************************
  
  ------------------------------------------------------------------------------------------------------------------------------
                            Total      Total      Total      Total     Imperv       Perv      Total       Total     Peak  Runoff
                           Precip      Runon       Evap      Infil     Runoff     Runoff     Runoff      Runoff   Runoff   Coeff
  Subcatchment                 mm         mm         mm         mm         mm         mm         mm    10^6 ltr      LPS
  ------------------------------------------------------------------------------------------------------------------------------
  sub0                      13.45       0.00       0.00       0.63      12.47       0.31      12.77        0.01     3.75   0.950
  sub1                      13.45       0.00       0.00       1.12      11.88       0.36      12.24        0.08    25.66   0.910
  sub2                      13.45       0.00       0.00       4.44       8.39       0.53       8.92        0.08    25.29   0.663
  sub3                      13.45       0.00       0.00       4.56       8.35       0.42       8.77        0.20    55.75   0.652
  sub4                      13.45       0.00       0.00       1.22      11.71       0.26      11.97        0.25    65.52   0.890
  sub5                      13.45       0.00       0.00       0.68      12.41       0.26      12.67        0.14    44.76   0.942
  sub7                      13.45       0.00       0.00       0.86      12.18       0.35      12.53        0.04    14.26   0.931
  sub8                      13.45       0.00       0.00       0.87      12.17       0.34      12.50        0.08    26.26   0.930
  sub9                      13.45       0.00       0.00       0.88      12.17       0.33      12.50        0.06    19.64   0.929
  sub10                     13.45       0.00       0.00       0.78      12.29       0.29      12.58        0.14    44.00   0.935
  sub11                     13.45       0.00       0.00       0.77      12.30       0.31      12.61        0.15    48.45   0.938
  sub12                     13.45       0.00       0.00       1.25      11.66       0.50      12.16        0.11    38.10   0.904
  sub14                     13.45       0.00       0.00       0.88      12.16       0.33      12.49        0.12    38.67   0.929
  sub15                     13.45       0.00       0.00       3.37       9.35       0.66      10.01        0.17    57.01   0.744
  sub16                     13.45       0.00       0.00       3.56       8.97       0.88       9.85        0.10    37.63   0.732
  sub17                     13.45       0.00       0.00       3.47       9.10       0.84       9.94        0.09    30.67   0.739
  sub22                     13.45       0.00       0.00       4.98       7.63       0.81       8.43        0.53   184.54   0.627
  sub23                     13.45       0.00       0.00       4.17       8.43       0.81       9.24        0.44   154.22   0.687
  sub60                     13.45       0.00       0.00       1.53       9.85       0.09       9.93        3.01   438.14   0.738
  sub61                     13.45       0.00       0.00       2.16       9.95       0.12      10.07        3.11   536.45   0.749
  sub62                     13.45       0.00       0.00       0.98      10.84       0.10      10.94        3.36   552.35   0.813
  sub63                     13.45       0.00       0.00       3.77       8.69       0.14       8.83        2.67   492.63   0.656
  sub64                     13.45       0.00       0.00       1.93       9.45       0.09       9.54        2.90   416.72   0.709
  sub65                     13.45       0.00       0.00       1.67       9.61       0.08       9.70        2.98   423.09   0.721
  sub66                     13.45       0.00       0.00       3.81       8.10       0.09       8.18        2.51   380.66   0.608
  sub67                     13.45       0.00       0.00       0.95      11.38       0.13      11.51        3.55   679.52   0.856
  sub68                     13.45       0.00       0.00       1.75      10.45       0.13      10.59        3.26   586.26   0.787
  sub69                     13.45       0.00       0.00       1.83      10.79       0.19      10.98        2.57   544.72   0.816
  sub70                     13.45      11.20       0.00       7.51      14.65       0.88      15.52        3.55   494.81   0.630
  sub71                     13.45       0.00       0.00       0.99      10.58       0.09      10.67        2.52   389.24   0.793
  sub72                     13.45       0.00       0.00       0.89       8.56       0.05       8.61        1.75   189.18   0.640
  1                         13.45      15.11       0.00       1.37      16.56       4.63      21.19        4.98   484.42   0.742
  2                         13.45       0.00       0.00       3.02       3.21       1.96       5.17        2.07   340.45   0.384
  
  
  ****************************
  Subcatchment Washoff Summary
  ****************************
  
  ------------------------------------------------------------------------------------------
                                 COD            SS            TN            TP         NH4-N
  Subcatchment                    kg            kg            kg            kg            kg
  ------------------------------------------------------------------------------------------
  sub0                         2.670         5.197         0.046         0.004         0.022
  sub1                        11.241        22.423         0.210         0.015         0.101
  sub2                         6.894        13.384         0.145         0.010         0.067
  sub3                        16.924        32.573         0.350         0.024         0.161
  sub4                        25.772        51.904         0.510         0.031         0.245
  sub5                        25.778        50.682         0.460         0.035         0.223
  sub7                         5.751        11.638         0.108         0.007         0.052
  sub8                         8.581        17.755         0.171         0.010         0.082
  sub9                         7.353        15.005         0.142         0.009         0.068
  sub10                       21.202        42.223         0.389         0.028         0.188
  sub11                       20.657        41.614         0.386         0.026         0.187
  sub12                       17.724        35.094         0.321         0.024         0.155
  sub14                       15.732        31.800         0.298         0.020         0.144
  sub15                       20.231        39.321         0.389         0.028         0.182
  sub16                       13.129        25.518         0.249         0.019         0.117
  sub17                       12.049        23.208         0.222         0.017         0.105
  sub22                       62.582       119.432         1.186         0.090         0.554
  sub23                       36.683        72.439         0.776         0.051         0.357
  sub60                      243.520       456.962         4.842         0.298         2.321
  sub61                      302.151       564.434         5.627         0.386         2.710
  sub62                      313.722       596.076         6.119         0.388         2.938
  sub63                      223.275       410.850         4.468         0.314         2.075
  sub64                      305.877       553.773         5.626         0.410         2.687
  sub65                      313.037       569.066         5.795         0.415         2.772
  sub66                      176.068       321.340         3.608         0.236         1.687
  sub67                      466.222       877.505         8.365         0.616         4.045
  sub68                      332.037       626.413         6.347         0.429         3.034
  sub69                      298.258       568.561         5.590         0.393         2.674
  sub70                      502.897       962.303        10.037         0.699         4.710
  sub71                      206.745       396.330         4.242         0.246         2.030
  sub72                      164.385       293.107         3.069         0.210         1.476
  1                          349.075       671.606         7.102         0.495         3.297
  2                           42.749        75.577         1.214         0.073         0.518
  ------------------------------------------------------------------------------------------
  System                    4570.974      8595.115        88.408         6.057        41.983
  
  
  ******************
  Node Depth Summary
  ******************
  
  ---------------------------------------------------------------------------------
                                 Average  Maximum  Maximum  Time of Max    Reported
                                   Depth    Depth      HGL   Occurrence   Max Depth
  Node                 Type       Meters   Meters   Meters  days hr:min      Meters
  ---------------------------------------------------------------------------------
  WS02001211           JUNCTION     0.77     0.85     5.69     0  03:07        0.85
  WS02001212           JUNCTION     0.48     0.58     5.64     0  03:06        0.58
  WS02001213           JUNCTION     0.73     0.85     5.62     0  03:06        0.85
  WS02003069           JUNCTION     0.53     0.72     5.30     0  03:05        0.72
  WS02003072           JUNCTION     0.59     0.76     5.13     0  03:06        0.76
  WS02003073           JUNCTION     0.36     0.48     4.54     0  03:07        0.48
  WS02003060           JUNCTION     0.47     0.63     5.57     0  03:05        0.63
  WS02003066           JUNCTION     0.26     0.39     5.94     0  03:04        0.39
  WS02003059           JUNCTION     0.78     0.91     5.60     0  03:05        0.91
  WS02003067           JUNCTION     0.63     0.82     6.14     0  03:04        0.82
  WS02004401           JUNCTION     0.77     1.24     7.24     0  03:02        1.23
  WS02004402           JUNCTION     0.79     1.22     7.18     0  03:02        1.22
  WS02004403           JUNCTION     0.81     1.20     7.13     0  03:02        1.19
  WS02004404           JUNCTION     0.88     1.24     7.09     0  03:01        1.24
  WS02004406           JUNCTION     0.88     1.16     6.99     0  03:02        1.16
  WS02004409           JUNCTION     0.58     0.96     6.73     0  03:03        0.96
  WS02004410           JUNCTION     0.60     0.95     6.67     0  03:03        0.95
  WS02004411           JUNCTION     0.61     0.93     6.61     0  03:03        0.93
  WS02004412           JUNCTION     0.62     0.90     6.54     0  03:03        0.90
  WS02004413           JUNCTION     0.78     1.02     6.49     0  03:03        1.02
  WS02004405           JUNCTION     0.88     1.22     7.07     0  03:02        1.21
  WS02006109           JUNCTION     0.86     1.65     8.27     0  03:02        1.64
  WS02006110           JUNCTION     0.83     1.45     8.03     0  03:02        1.44
  WS02006111           JUNCTION     0.26     0.88     7.59     0  03:02        0.88
  WS02006112           JUNCTION     0.95     1.56     7.44     0  03:01        1.55
  WS02006113           JUNCTION     0.40     0.92     7.82     0  03:02        0.92
  WS02006115           JUNCTION     0.66     1.22     7.36     0  03:02        1.21
  WS02006116           JUNCTION     0.74     1.26     7.30     0  03:01        1.26
  WS02006230           JUNCTION     0.90     1.87     8.62     0  03:02        1.87
  WS02006231           JUNCTION     0.63     1.52     8.64     0  03:02        1.52
  WS02006232           JUNCTION     0.78     1.63     8.67     0  03:02        1.61
  WS02006234           JUNCTION     0.73     1.53     8.68     0  03:02        1.52
  WS02006235           JUNCTION     0.78     1.54     8.70     0  03:02        1.53
  WS02006238           JUNCTION     0.80     1.56     8.70     0  03:02        1.55
  WS02006240           JUNCTION     0.72     1.40     8.69     0  03:02        1.40
  WS02006242           JUNCTION     0.77     1.43     8.69     0  03:01        1.42
  WS02006243           JUNCTION     0.66     1.27     8.69     0  03:02        1.27
  WS02006245           JUNCTION     0.64     1.21     8.70     0  03:02        1.21
  WS02006247           JUNCTION     0.65     1.20     8.70     0  02:59        1.19
  WS02006248           JUNCTION     0.59     1.10     8.69     0  02:54        1.10
  WS02006249           JUNCTION     0.61     1.09     8.69     0  02:54        1.09
  WS02006239           JUNCTION     0.77     1.49     8.70     0  03:02        1.48
  WS02006251           JUNCTION     0.59     1.53     9.20     0  02:55        1.20
  WS02006252           JUNCTION     0.37     1.04     9.28     0  02:55        0.75
  WS02006253           JUNCTION     0.61     1.65     9.29     0  02:55        1.23
  WS02006256           JUNCTION     1.77     2.35     9.28     0  00:00        2.35
  WS02004138           JUNCTION     0.19     0.20     7.45     0  00:00        0.19
  WS02004139           JUNCTION     0.72     0.79     5.70     0  03:07        0.79
  WS02004407           JUNCTION     0.26     0.40     6.71     0  03:03        0.40
  WS02006228           JUNCTION     0.88     1.83     8.48     0  03:02        1.82
  WS02006229           JUNCTION     0.87     1.90     8.59     0  03:02        1.89
  WS02006280           JUNCTION     0.07     0.30     8.57     0  03:05        0.30
  WS02006284           JUNCTION     0.37     0.65     9.04     0  03:02        0.64
  WS02006287           JUNCTION     0.10     0.39     9.34     0  03:02        0.39
  WSF200               JUNCTION     0.26     0.44     5.67     0  03:04        0.44
  HS02004901           JUNCTION     0.13     0.38    10.20     0  03:01        0.37
  HS02004881           JUNCTION     0.01     0.06     9.09     0  02:55        0.05
  HS02004876           JUNCTION     0.04     0.16     9.19     0  03:01        0.16
  HS02004870           JUNCTION     0.02     0.09     9.38     0  03:01        0.09
  HS02004862           JUNCTION     0.02     0.11     9.49     0  03:01        0.11
  HS02004856           JUNCTION     0.08     0.15     9.58     0  03:01        0.15
  HS02004852           JUNCTION     0.01     0.07     9.59     0  03:02        0.07
  HS02004848           JUNCTION     0.01     0.07     9.67     0  03:01        0.07
  HS02004842           JUNCTION     0.33     0.40     9.67     0  03:01        0.40
  HS02004837           JUNCTION     0.03     0.09     9.67     0  03:01        0.09
  HS02004830           JUNCTION     0.04     0.10     9.57     0  03:01        0.10
  HS02004824           JUNCTION     0.02     0.13     9.53     0  03:02        0.13
  HS02004817           JUNCTION     0.44     0.69     9.54     0  03:02        0.69
  HS02004807           JUNCTION     0.13     0.36     9.53     0  03:02        0.36
  HS02004802           JUNCTION     0.16     0.39     9.52     0  03:02        0.39
  HS02004799           JUNCTION     0.12     0.46     9.68     0  03:01        0.46
  HS02004792           JUNCTION     0.03     0.22     9.74     0  03:01        0.21
  HS02004788           JUNCTION     0.03     0.16    10.05     0  03:02        0.16
  HS02004785           JUNCTION     0.05     0.25    10.15     0  03:02        0.25
  HS02004777           JUNCTION     0.15     0.39    10.19     0  03:01        0.39
  HS02004770           JUNCTION     0.12     0.37    10.20     0  03:01        0.36
  HS02004480           JUNCTION     0.08     0.38     9.62     0  03:01        0.38
  HS02004479           JUNCTION     0.12     0.42     9.62     0  03:01        0.42
  HS02004478           JUNCTION     0.06     0.28     9.50     0  03:01        0.28
  YS02001745           JUNCTION     0.73     0.95     8.46     0  03:01        0.94
  YS02001748           JUNCTION     1.13     2.27     9.35     0  02:32        1.38
  YS02001751           JUNCTION     1.32     2.12     8.99     0  02:32        1.57
  YS02001754           JUNCTION     1.57     2.18     8.78     0  02:32        1.83
  YS02001762           JUNCTION     1.77     2.04     8.44     0  03:19        2.03
  YS02001765           JUNCTION     1.72     1.99     8.44     0  03:19        1.99
  YS02001767           JUNCTION     1.68     1.94     8.43     0  03:06        1.94
  YS02001770           JUNCTION     1.68     1.94     8.43     0  03:00        1.92
  YS02001774           JUNCTION     1.75     1.99     8.41     0  03:00        1.98
  YS02001779           JUNCTION     1.49     1.68     8.37     0  02:32        1.68
  YS02001882           JUNCTION     0.56     1.64     8.36     0  02:48        1.63
  YS02001884           JUNCTION     0.65     1.74     8.35     0  03:00        1.73
  YS02001759           JUNCTION     1.80     2.08     8.45     0  03:19        2.07
  YS02001887           JUNCTION     0.73     1.81     8.35     0  03:00        1.80
  YS02001890           JUNCTION     0.76     1.81     8.32     0  02:48        1.81
  YS02001898           JUNCTION     0.53     1.56     8.30     0  02:48        1.56
  YS02001901           JUNCTION     0.65     1.68     8.29     0  02:53        1.67
  YS02001904           JUNCTION     0.62     1.64     8.27     0  02:48        1.63
  YS02001907           JUNCTION     0.96     1.96     8.25     0  02:48        1.96
  YS02001910           JUNCTION     0.74     1.83     8.33     0  02:49        1.78
  YS02001915           JUNCTION     0.54     1.67     8.39     0  02:49        1.63
  YS02001918           JUNCTION     0.29     1.42     8.48     0  02:49        1.32
  YS02001619           JUNCTION     1.28     1.61     8.54     0  02:32        1.48
  YS02001629           JUNCTION     1.63     1.85     8.40     0  02:32        1.84
  YS02001641           JUNCTION     1.73     1.93     8.37     0  02:55        1.93
  YS02001644           JUNCTION     1.73     1.92     8.35     0  02:39        1.92
  YS02001652           JUNCTION     1.58     2.15     8.75     0  02:45        1.95
  YS02001655           JUNCTION     1.34     2.20     9.05     0  02:45        1.79
  YS02001920           JUNCTION     0.39     1.52     8.53     0  02:49        1.41
  YS02001923           JUNCTION     0.23     1.30     8.56     0  02:49        1.18
  YS02001926           JUNCTION     0.29     1.39     8.84     0  02:49        0.96
  YS02001929           JUNCTION     0.17     0.84     8.54     0  02:49        0.72
  YS02001658           JUNCTION     1.07     2.30     9.44     0  02:45        1.58
  YS02001661           JUNCTION     0.84     2.40     9.80     0  02:45        1.37
  YS02001664           JUNCTION     0.37     0.57     8.49     0  02:47        0.56
  YS02001622           JUNCTION     1.30     1.62     8.52     0  02:32        1.50
  YS02001633           JUNCTION     1.72     1.95     8.40     0  02:56        1.94
  YS02001649           JUNCTION     1.78     2.05     8.44     0  02:41        2.05
  YS02001757           JUNCTION     1.90     2.19     8.45     0  02:32        2.18
  YS02001895           JUNCTION     0.52     1.57     8.31     0  02:52        1.56
  YS02001625           JUNCTION     1.58     1.78     8.38     0  02:32        1.78
  YS02163301           JUNCTION     1.66     1.89     8.41     0  02:32        1.88
  YS02163601           JUNCTION     1.77     1.99     8.39     0  02:40        1.98
  YS02164001           JUNCTION     1.71     1.92     8.38     0  02:39        1.91
  YS02001647           JUNCTION     1.56     1.80     8.41     0  02:52        1.79
  YSB1154              JUNCTION     0.26     0.57     9.62     0  03:01        0.57
  YSB6556              JUNCTION     0.15     0.45     9.62     0  03:02        0.45
  YSB1174              JUNCTION     0.21     0.52     9.62     0  03:01        0.51
  YSB1171              JUNCTION     0.41     0.72     9.62     0  03:01        0.72
  YS02006553           JUNCTION     0.96     1.97     8.25     0  03:00        1.97
  YS02006561           JUNCTION     0.31     1.27     7.93     0  02:46        1.08
  YS02006556           JUNCTION     0.92     1.93     8.25     0  03:00        1.93
  YS02006558           JUNCTION     0.96     1.98     8.25     0  02:58        1.98
  YS02001783           JUNCTION     0.53     1.60     7.74     0  02:46        1.47
  YS02001784           JUNCTION     0.55     1.60     7.67     0  02:46        1.41
  YS02001786           JUNCTION     0.49     1.69     7.72     0  02:46        1.26
  YS02001788           JUNCTION     0.41     1.97     7.94     0  02:46        1.13
  YS02001790           JUNCTION     0.53     1.96     7.60     0  04:52        1.29
  YS02001791           JUNCTION     0.49     2.72     8.19     0  04:51        1.27
  YS02001793           JUNCTION     0.68     2.69     7.52     0  04:49        1.80
  WSC                  OUTFALL      0.36     0.48     1.15     0  03:07        0.48
  JK-storage           STORAGE      2.89     5.80     6.60     0  02:46        5.80
  CC-storage           STORAGE      1.16     1.45     8.45     0  03:18        1.45
  XR-storage           STORAGE      6.84     7.72     5.72     0  02:53        7.72
  
  
  *******************
  Node Inflow Summary
  *******************
  
  -------------------------------------------------------------------------------------------------
                                  Maximum  Maximum                  Lateral       Total        Flow
                                  Lateral    Total  Time of Max      Inflow      Inflow     Balance
                                   Inflow   Inflow   Occurrence      Volume      Volume       Error
  Node                 Type           LPS      LPS  days hr:min    10^6 ltr    10^6 ltr     Percent
  -------------------------------------------------------------------------------------------------
  WS02001211           JUNCTION      7.35   391.91     0  03:17       0.207        9.91       0.422
  WS02001212           JUNCTION      0.00   396.63     0  03:16           0        9.87       0.260
  WS02001213           JUNCTION      0.00   400.54     0  03:17           0        9.84       0.312
  WS02003069           JUNCTION      0.32  1330.55     0  03:05     0.00902        20.7       0.205
  WS02003072           JUNCTION      0.00  1330.24     0  03:06           0        20.7       0.237
  WS02003073           JUNCTION      1.82  1332.28     0  03:06      0.0514        20.7       0.279
  WS02003060           JUNCTION     16.53  1330.25     0  03:05       0.466        20.7       0.193
  WS02003066           JUNCTION      0.00   939.16     0  03:04           0        10.5       0.058
  WS02003059           JUNCTION      0.00   405.84     0  03:17           0        9.82       0.439
  WS02003067           JUNCTION      0.00   938.69     0  03:04           0        10.5       0.111
  WS02004401           JUNCTION      0.00   939.82     0  03:02           0        10.8       0.252
  WS02004402           JUNCTION      0.00   939.55     0  03:02           0        10.8       0.231
  WS02004403           JUNCTION      0.00   939.80     0  03:02           0        10.8       0.205
  WS02004404           JUNCTION      0.16   940.44     0  03:02     0.00457        10.8       0.147
  WS02004406           JUNCTION      0.00   940.01     0  03:03           0        10.7       0.360
  WS02004409           JUNCTION      0.00   939.85     0  03:03           0        10.7       0.226
  WS02004410           JUNCTION      0.00   938.88     0  03:03           0        10.6       0.246
  WS02004411           JUNCTION      0.00   938.49     0  03:03           0        10.6       0.245
  WS02004412           JUNCTION      0.00   938.19     0  03:03           0        10.6       0.253
  WS02004413           JUNCTION      0.00   938.59     0  03:04           0        10.6       0.357
  WS02004405           JUNCTION      0.04   940.62     0  03:02     0.00107        10.7       0.218
  WS02006109           JUNCTION      1.23   915.01     0  03:02      0.0347        10.9       0.202
  WS02006110           JUNCTION      0.00   915.08     0  03:02           0        10.9       0.210
  WS02006111           JUNCTION      0.00   915.58     0  03:03           0        10.8       0.057
  WS02006112           JUNCTION     30.67   939.32     0  03:02      0.0853        10.9       0.320
  WS02006113           JUNCTION      0.00   915.09     0  03:02           0        10.8       0.132
  WS02006115           JUNCTION      0.00   939.41     0  03:02           0        10.9       0.264
  WS02006116           JUNCTION      0.00   939.53     0  03:02           0        10.8       0.226
  WS02006230           JUNCTION     10.28   532.75     0  07:10        0.29        8.48       0.240
  WS02006231           JUNCTION      0.00   522.51     0  07:10           0         8.2       0.167
  WS02006232           JUNCTION      0.00   522.57     0  07:10           0        8.22       0.222
  WS02006234           JUNCTION      0.00   522.75     0  07:10           0        8.23       0.134
  WS02006235           JUNCTION      0.00   523.49     0  07:21           0         8.3       0.141
  WS02006238           JUNCTION      0.00   416.99     0  04:40           0        4.82       0.173
  WS02006240           JUNCTION      0.00   415.46     0  04:40           0         4.8       0.349
  WS02006242           JUNCTION      0.00   415.17     0  04:40           0         4.8       0.388
  WS02006243           JUNCTION      0.00   415.25     0  04:40           0        4.79       0.293
  WS02006245           JUNCTION      0.00   414.68     0  04:40           0         4.8       0.262
  WS02006247           JUNCTION      0.00   414.91     0  04:40           0        4.81       0.238
  WS02006248           JUNCTION      0.00   415.11     0  04:40           0        4.82       0.206
  WS02006249           JUNCTION      0.00   537.84     0  03:00           0        5.36       0.283
  WS02006239           JUNCTION      0.00   416.51     0  04:40           0        4.81       0.252
  WS02006251           JUNCTION      0.08   535.79     0  03:00     0.00217        5.43       0.336
  WS02006252           JUNCTION      0.00   400.00     0  03:30           0        4.92       0.012
  WS02006253           JUNCTION      3.75   175.39     0  02:54      0.0103       0.523       2.744
  WS02006256           JUNCTION      0.00   983.00     0  02:20           0        10.3      -0.012
  WS02004138           JUNCTION      0.00   380.00     0  00:00           0        9.75       0.063
  WS02004139           JUNCTION      0.32   395.85     0  00:00     0.00905        9.75       0.480
  WS02004407           JUNCTION      0.00   939.98     0  03:03           0        10.7       0.101
  WS02006228           JUNCTION      0.00   913.68     0  03:02           0        10.9       0.156
  WS02006229           JUNCTION      0.00   917.49     0  03:01           0        10.9       0.150
  WS02006280           JUNCTION      0.00   680.18     0  03:02           0        2.43       0.009
  WS02006284           JUNCTION      0.10   679.05     0  03:02      0.0027        2.43       0.046
  WS02006287           JUNCTION      0.00   677.68     0  03:02           0        2.43       0.031
  WSF200               JUNCTION      0.00   939.33     0  03:04           0        10.5       0.064
  HS02004901           JUNCTION     37.63    37.63     0  03:01       0.103       0.103       1.742
  HS02004881           JUNCTION     14.26   140.55     0  03:01      0.0422       0.463       0.101
  HS02004876           JUNCTION     25.66   127.65     0  03:01      0.0814       0.422       0.130
  HS02004870           JUNCTION     26.26   103.59     0  03:01      0.0799        0.34       0.035
  HS02004862           JUNCTION     25.49    79.37     0  03:01      0.0888       0.261       0.067
  HS02004856           JUNCTION     19.64    55.41     0  03:01      0.0601       0.173       0.845
  HS02004852           JUNCTION      0.00    37.85     0  03:01           0       0.113       0.053
  HS02004848           JUNCTION     55.75    55.75     0  03:01       0.197       0.197       0.028
  HS02004842           JUNCTION      0.00    16.84     0  03:01           0       0.097      15.491
  HS02004837           JUNCTION     50.35    65.70     0  03:01       0.318       0.402       0.204
  HS02004830           JUNCTION      0.15    64.80     0  03:01     0.00423       0.392       0.316
  HS02004824           JUNCTION     65.57   128.43     0  03:01       0.251       0.642       0.085
  HS02004817           JUNCTION      0.60   124.46     0  03:01      0.0169       0.658       2.600
  HS02004807           JUNCTION     48.45   165.78     0  03:01       0.147       0.788       0.554
  HS02004802           JUNCTION      0.00   165.31     0  03:04           0       0.785       0.507
  HS02004799           JUNCTION     38.67   446.05     0  03:01       0.119        1.42       0.191
  HS02004792           JUNCTION    184.82   411.74     0  03:01        0.54         1.3       0.033
  HS02004788           JUNCTION     58.68   233.43     0  03:02       0.219       0.758       0.053
  HS02004785           JUNCTION      0.15   182.21     0  03:01     0.00423        0.54       0.093
  HS02004777           JUNCTION      0.03   185.01     0  03:01    0.000846       0.541       0.972
  HS02004770           JUNCTION    154.22   188.94     0  03:01       0.441       0.542       0.578
  HS02004480           JUNCTION      0.00   517.24     0  03:01           0        1.66       0.069
  HS02004479           JUNCTION      0.00    75.47     0  03:02           0       0.258       0.286
  HS02004478           JUNCTION      0.00   677.09     0  03:02           0        2.43       0.011
  YS02001745           JUNCTION    438.14   438.14     0  03:01        3.01        3.02       0.312
  YS02001748           JUNCTION      0.04   585.23     0  02:32     0.00127        3.01       0.710
  YS02001751           JUNCTION      0.01   444.67     0  03:01     0.00031        2.98       0.802
  YS02001754           JUNCTION      0.26   445.12     0  03:01     0.00733        2.96       0.838
  YS02001762           JUNCTION      0.00   316.84     0  02:42           0         2.1       1.021
  YS02001765           JUNCTION      0.00   316.77     0  02:42           0         2.1       1.178
  YS02001767           JUNCTION      0.54   317.23     0  02:42      0.0151        2.12       1.707
  YS02001770           JUNCTION    552.50   669.57     0  03:19        3.37        3.82       0.827
  YS02001774           JUNCTION      0.00   670.01     0  03:19           0        2.15       1.183
  YS02001779           JUNCTION      0.01   669.74     0  03:19    0.000141        2.11       0.738
  YS02001882           JUNCTION      0.00    14.25     0  04:12           0       0.018      14.415
  YS02001884           JUNCTION      0.00    22.41     0  04:13           0       0.055      12.867
  YS02001759           JUNCTION    536.49   623.36     0  02:42        3.11        4.72       0.483
  YS02001887           JUNCTION    679.97   679.97     0  03:01        3.56         3.6       0.241
  YS02001890           JUNCTION      0.00   680.64     0  03:01           0        3.55       0.269
  YS02001898           JUNCTION      0.00   518.14     0  02:58           0        3.45       0.088
  YS02001901           JUNCTION      0.00   517.60     0  02:58           0        3.45       0.210
  YS02001904           JUNCTION      0.00   517.71     0  02:55           0        3.44       0.187
  YS02001907           JUNCTION      0.00  1104.25     0  03:01           0        7.77       0.316
  YS02001910           JUNCTION      0.00   593.13     0  02:50           0        4.34       0.277
  YS02001915           JUNCTION    389.26   592.53     0  02:50        2.52        4.37       0.142
  YS02001918           JUNCTION      0.00   320.72     0  02:50           0        1.88       0.088
  YS02001619           JUNCTION    380.66   380.66     0  03:01        2.51        2.51       0.479
  YS02001629           JUNCTION      0.00   197.51     0  02:39           0        1.59       1.827
  YS02001641           JUNCTION      0.00   414.44     0  02:39           0        4.46       0.470
  YS02001644           JUNCTION    416.76  1491.68     0  03:01         2.9        10.4       0.251
  YS02001652           JUNCTION      0.00   504.00     0  03:01           0        2.63       0.896
  YS02001655           JUNCTION      0.15   503.41     0  03:01     0.00434        2.66       0.928
  YS02001920           JUNCTION      2.87   320.15     0  02:50      0.0809        1.87       0.152
  YS02001923           JUNCTION      0.04   320.42     0  02:50     0.00106        1.78       0.040
  YS02001926           JUNCTION      0.05   297.54     0  02:48     0.00147        1.76       0.179
  YS02001929           JUNCTION    189.18   193.49     0  02:47        1.75        1.75       0.036
  YS02001658           JUNCTION      0.00   621.26     0  02:29           0        2.69       0.763
  YS02001661           JUNCTION      0.00   653.49     0  02:43           0        3.19      -0.235
  YS02001664           JUNCTION    492.63   492.63     0  03:01        2.67        3.18       0.152
  YS02001622           JUNCTION      0.00   381.74     0  03:01           0         2.5       1.282
  YS02001633           JUNCTION    423.29   423.29     0  03:01        2.99        4.52       0.711
  YS02001649           JUNCTION      0.00   875.05     0  02:40           0        5.78       0.649
  YS02001757           JUNCTION      0.00  1677.25     0  02:40           0        9.83       0.942
  YS02001895           JUNCTION      0.00   517.91     0  02:58           0        3.45       0.151
  YS02001625           JUNCTION      0.00   408.45     0  03:01           0        2.48       1.583
  YS02163301           JUNCTION      0.00   203.61     0  02:34           0        1.57       1.546
  YS02163601           JUNCTION      0.11   414.89     0  02:39      0.0031        4.48       0.672
  YS02164001           JUNCTION      0.00   414.55     0  02:39           0        4.46       0.448
  YS02001647           JUNCTION      0.00   776.48     0  03:19           0        4.88       0.575
  YSB1154              JUNCTION     44.76    44.76     0  03:01       0.144       0.144       1.017
  YSB6556              JUNCTION      0.00    43.27     0  03:01           0       0.145       0.869
  YSB1174              JUNCTION     38.10    38.10     0  03:01       0.106       0.107       1.222
  YSB1171              JUNCTION      0.00    76.92     0  03:01           0       0.257       2.526
  YS02006553           JUNCTION      0.00   710.30     0  03:46           0        6.72       0.234
  YS02006561           JUNCTION      0.00  1015.79     0  02:46           0        9.94       0.007
  YS02006556           JUNCTION      0.00   710.31     0  03:46           0        6.72       0.172
  YS02006558           JUNCTION    587.14  1015.63     0  02:46        3.28        9.97       0.054
  YS02001783           JUNCTION      0.00  1002.67     0  02:45           0        9.94       0.026
  YS02001784           JUNCTION      1.06  1004.16     0  02:45      0.0299        9.97       0.039
  YS02001786           JUNCTION      0.06  1003.87     0  02:46     0.00159        9.97       0.035
  YS02001788           JUNCTION      0.07   989.54     0  02:45       0.002        9.96       0.024
  YS02001790           JUNCTION      0.15   982.96     0  03:29     0.00437        9.97       0.023
  YS02001791           JUNCTION      0.00  1025.94     0  02:44           0        9.96       0.009
  YS02001793           JUNCTION      0.00   983.73     0  03:33           0        9.97      -0.004
  WSC                  OUTFALL       0.00  1332.60     0  03:07           0        20.6       0.000
  JK-storage           STORAGE       0.00   983.21     0  03:29           0        10.1     -10.271
  CC-storage           STORAGE       0.00  1678.04     0  02:40           0        8.32       0.729
  XR-storage           STORAGE    1024.87  1024.87     0  03:01        12.7        13.3      -0.001
  
  
  **********************
  Node Surcharge Summary
  **********************
  
  Surcharging occurs when water rises above the top of the highest conduit.
  ---------------------------------------------------------------------
                                               Max. Height   Min. Depth
                                   Hours       Above Crown    Below Rim
  Node                 Type      Surcharged         Meters       Meters
  ---------------------------------------------------------------------
  WS02004401           JUNCTION        0.35          0.238        1.422
  WS02004402           JUNCTION        0.37          0.223        1.517
  WS02004403           JUNCTION        0.38          0.201        1.829
  WS02004404           JUNCTION        0.96          0.243        2.537
  WS02004406           JUNCTION        0.64          0.163        2.287
  WS02004413           JUNCTION        0.17          0.023        2.177
  WS02004405           JUNCTION        0.78          0.217        2.583
  WS02006109           JUNCTION        4.36          0.834        0.986
  WS02006110           JUNCTION        2.74          0.537        1.313
  WS02006111           JUNCTION        0.13          0.074        1.796
  WS02006112           JUNCTION        3.23          0.558        1.122
  WS02006113           JUNCTION        0.15          0.123        1.807
  WS02006115           JUNCTION        0.28          0.207        2.043
  WS02006116           JUNCTION        0.29          0.202        2.088
  WS02006230           JUNCTION        2.22          0.795        0.775
  WS02006231           JUNCTION        2.93          0.810        0.720
  WS02006232           JUNCTION        4.24          0.928        0.552
  WS02006234           JUNCTION        3.60          0.808        0.432
  WS02006235           JUNCTION        3.83          0.828        0.462
  WS02006238           JUNCTION        3.95          0.838        0.592
  WS02006240           JUNCTION        3.22          0.690        0.700
  WS02006242           JUNCTION        3.45          0.695        0.125
  WS02006243           JUNCTION        3.00          0.565        0.205
  WS02006245           JUNCTION        2.89          0.503        0.347
  WS02006247           JUNCTION        2.93          0.487        0.273
  WS02006248           JUNCTION        2.53          0.380        0.000
  WS02006249           JUNCTION        2.66          0.390        0.000
  WS02006239           JUNCTION        3.51          0.748        0.542
  WS02006251           JUNCTION        1.56          0.505        0.675
  WS02006252           JUNCTION        3.08          0.639        0.461
  WS02006253           JUNCTION        1.61          0.608        1.872
  WS02006256           JUNCTION        6.84          2.050        0.000
  WS02006228           JUNCTION        4.31          1.000        1.200
  YS02001748           JUNCTION        5.22          1.190        0.000
  YS02001751           JUNCTION        5.38          1.116        0.084
  YS02001754           JUNCTION        5.57          1.126        0.024
  YS02001762           JUNCTION        5.75          1.045        0.105
  YS02001765           JUNCTION        5.72          0.991        0.109
  YS02001767           JUNCTION        5.69          0.944        0.086
  YS02001770           JUNCTION        5.68          0.906        0.014
  YS02001774           JUNCTION        5.74          0.987        0.063
  YS02001779           JUNCTION        5.56          0.680        0.000
  YS02001882           JUNCTION        1.06          0.641        0.189
  YS02001884           JUNCTION        1.09          0.677        0.193
  YS02001759           JUNCTION        5.78          1.081        0.129
  YS02001887           JUNCTION        1.17          0.763        0.187
  YS02001890           JUNCTION        1.19          0.760        0.000
  YS02001898           JUNCTION        1.02          0.534        0.206
  YS02001901           JUNCTION        1.13          0.677        0.193
  YS02001904           JUNCTION        1.10          0.643        0.207
  YS02001907           JUNCTION        1.90          0.950        0.000
  YS02001910           JUNCTION        1.24          0.826        0.274
  YS02001915           JUNCTION        1.04          0.668        0.332
  YS02001918           JUNCTION        0.88          0.418        0.392
  YS02001619           JUNCTION        5.37          0.610        0.000
  YS02001629           JUNCTION        5.38          0.470        0.000
  YS02001641           JUNCTION        5.73          0.935        0.165
  YS02001644           JUNCTION        5.73          0.920        0.000
  YS02001652           JUNCTION        5.61          1.119        0.011
  YS02001655           JUNCTION        5.39          1.200        0.000
  YS02001920           JUNCTION        0.90          0.519        0.621
  YS02001923           JUNCTION        0.01          0.092        0.728
  YS02001926           JUNCTION        0.01          0.393        0.507
  YS02001658           JUNCTION        5.25          1.300        0.000
  YS02001661           JUNCTION        0.13          1.326        0.064
  YS02001622           JUNCTION        5.41          0.620        0.000
  YS02001633           JUNCTION        5.71          0.926        0.134
  YS02001649           JUNCTION        5.76          1.050        0.000
  YS02001757           JUNCTION        5.86          1.193        0.017
  YS02001895           JUNCTION        1.03          0.567        0.183
  YS02001625           JUNCTION        5.64          0.780        0.000
  YS02163301           JUNCTION        5.68          0.890        0.140
  YS02163601           JUNCTION        5.75          0.989        0.091
  YS02164001           JUNCTION        5.72          0.919        0.181
  YS02001647           JUNCTION        5.62          0.800        0.100
  YS02006553           JUNCTION        1.96          0.971        0.219
  YS02006561           JUNCTION        0.92          0.465        0.685
  YS02006556           JUNCTION        1.47          0.894        0.456
  YS02006558           JUNCTION        1.43          0.878        0.522
  YS02001783           JUNCTION        1.18          0.795        0.805
  YS02001784           JUNCTION        1.14          0.799        0.691
  YS02001786           JUNCTION        1.02          0.886        0.544
  YS02001788           JUNCTION        0.97          1.167        0.313
  YS02001790           JUNCTION        1.77          1.157        0.000
  YS02001791           JUNCTION        1.86          1.920        0.000
  YS02001793           JUNCTION        2.22          1.691        0.909
  
  
  *********************
  Node Flooding Summary
  *********************
  
  Flooding refers to all water that overflows a node, whether it ponds or not.
  --------------------------------------------------------------------------
                                                             Total   Maximum
                                 Maximum   Time of Max       Flood    Ponded
                        Hours       Rate    Occurrence      Volume     Depth
  Node                 Flooded       LPS   days hr:min    10^6 ltr    Meters
  --------------------------------------------------------------------------
  WS02006248              0.08     15.81      0  03:03       0.002     0.000
  WS02006249              1.51    426.90      0  03:00       0.532     0.000
  WS02006256              4.17    831.00      0  03:02       6.790     0.000
  YS02001748              0.01    192.72      0  02:32       0.000     0.000
  YS02001779              2.76    669.62      0  03:19       2.096     0.000
  YS02001890              0.34    164.70      0  03:01       0.085     0.000
  YS02001907              0.76    704.93      0  03:01       1.040     0.000
  YS02001619              0.01     17.35      0  02:32       0.000     0.000
  YS02001629              0.01     23.45      0  02:32       0.000     0.000
  YS02001644              4.07   1491.68      0  03:01       8.617     0.000
  YS02001655              0.01     11.53      0  02:45       0.000     0.000
  YS02001658              0.01     10.16      0  02:45       0.000     0.000
  YS02001622              0.01     11.73      0  02:32       0.000     0.000
  YS02001649              0.02     46.41      0  02:45       0.001     0.000
  YS02001625              1.42    408.37      0  03:01       0.855     0.000
  YS02001790              0.01    158.69      0  04:52       0.000     0.000
  YS02001791              0.01    208.29      0  04:51       0.000     0.000
  JK-storage              0.75    964.87      0  02:50       0.949     0.000
  XR-storage              3.55    644.74      0  03:01       2.785     0.000
  
  
  **********************
  Storage Volume Summary
  **********************
  
  --------------------------------------------------------------------------------------------------
                         Average     Avg  Evap Exfil       Maximum     Max    Time of Max    Maximum
                          Volume    Pcnt  Pcnt  Pcnt        Volume    Pcnt     Occurrence    Outflow
  Storage Unit           1000 m3    Full  Loss  Loss       1000 m3    Full    days hr:min        LPS
  --------------------------------------------------------------------------------------------------
  JK-storage               0.145      50     0     0         0.291     100       0  02:46     983.00
  CC-storage               3.226      21     0     0         4.028      26       0  03:18     400.00
  XR-storage               0.820      89     0     0         0.926     100       0  02:53     380.00
  
  
  ***********************
  Outfall Loading Summary
  ***********************
  
  ---------------------------------------------------------------------------------------------------------------------------------
                         Flow       Avg       Max       Total         Total         Total         Total         Total         Total
                         Freq      Flow      Flow      Volume           COD            SS            TN            TP         NH4-N
  Outfall Node           Pcnt       LPS       LPS    10^6 ltr            kg            kg            kg            kg            kg
  ---------------------------------------------------------------------------------------------------------------------------------
  WSC                   99.98    824.54   1332.60      20.609      2447.080      4243.525       149.168        17.393        89.861
  ---------------------------------------------------------------------------------------------------------------------------------
  System                99.98    824.54   1332.60      20.609      2447.080      4243.525       149.168        17.393        89.861
  
  
  ********************
  Link Flow Summary
  ********************
  
  -----------------------------------------------------------------------------
                                 Maximum  Time of Max   Maximum    Max/    Max/
                                  |Flow|   Occurrence   |Veloc|    Full    Full
  Link                 Type          LPS  days hr:min     m/sec    Flow   Depth
  -----------------------------------------------------------------------------
  WS02003066WSF200     CONDUIT    939.33     0  03:04      3.00    0.16    0.32
  WS02006287WS02006284 CONDUIT    678.95     0  03:02      2.38    0.31    0.39
  WS02006284WS02006280 CONDUIT    680.18     0  03:02      2.62    0.28    0.37
  WS02006280WS02006229 CONDUIT    680.25     0  03:02      3.91    0.15    0.50
  WS02006229WS02006228 CONDUIT    913.68     0  03:02      1.82    3.03    1.00
  WS02006256WS02006235 CONDUIT    288.92     0  00:00      4.23    3.06    1.00
  WS02006253WS02006251 CONDUIT    154.76     0  02:55      0.53    0.46    1.00
  WS02006252WS02006251 CONDUIT    401.06     0  07:10      3.19    1.47    1.00
  WS02006251WS02006249 CONDUIT    537.84     0  03:00      1.40    1.55    1.00
  WS02006249WS02006248 CONDUIT    415.11     0  04:40      1.14    2.27    1.00
  WS02006248WS02006247 CONDUIT    414.91     0  04:40      1.11    0.90    1.00
  WS02006247WS02006245 CONDUIT    414.68     0  04:40      1.08    3.29    1.00
  WS02006245WS02006243 CONDUIT    415.25     0  04:40      1.09    1.23    1.00
  WS02006243WS02006242 CONDUIT    415.17     0  04:40      1.08    0.89    1.00
  WS02006242WS02006240 CONDUIT    415.46     0  04:40      1.08    1.65    1.00
  WS02006240WS02006239 CONDUIT    416.51     0  04:40      1.08    1.31    1.00
  WS02006239WS02006238 CONDUIT    416.99     0  04:40      1.08    1.33    1.00
  WS02006238WS02006235 CONDUIT    417.66     0  04:40      1.45    0.93    1.00
  WS02006235WS02006234 CONDUIT    522.75     0  07:10      1.36    5.52    1.00
  WS02006234WS02006232 CONDUIT    522.57     0  07:10      1.39    1.06    1.00
  WS02006232WS02006231 CONDUIT    522.51     0  07:10      1.36    1.09    1.00
  WS02006231WS02006230 CONDUIT    522.47     0  07:10      1.36    7.93    1.00
  WS02006230WS02006229 CONDUIT    533.47     0  07:39      1.39   11.87    1.00
  WS02006228WS02006109 CONDUIT    913.78     0  03:02      1.82    3.99    1.00
  WS02006116WS02004401 CONDUIT    939.82     0  03:02      1.20    1.30    1.00
  WS02006115WS02006116 CONDUIT    939.53     0  03:02      1.20    1.21    1.00
  WS02006113WS02006111 CONDUIT    915.58     0  03:03      2.61    1.10    1.00
  WS02006112WS02006115 CONDUIT    939.41     0  03:02      1.20    0.55    1.00
  WS02006111WS02006112 CONDUIT    916.01     0  03:02      1.82    0.44    1.00
  WS02006110WS02006113 CONDUIT    915.09     0  03:02      1.83    0.83    1.00
  WS02006109WS02006110 CONDUIT    915.08     0  03:02      1.82    1.76    1.00
  WS02004411WS02004412 CONDUIT    938.19     0  03:03      1.24    1.33    0.92
  WS02004401WS02004402 CONDUIT    939.55     0  03:02      1.20    1.13    1.00
  WS02004413WS02003067 CONDUIT    938.69     0  03:04      1.55    0.40    0.72
  WS02004412WS02004413 CONDUIT    938.59     0  03:04      1.22    0.63    0.95
  WS02004410WS02004411 CONDUIT    938.49     0  03:03      1.23    1.28    0.94
  WS02004409WS02004410 CONDUIT    938.88     0  03:03      1.22    1.21    0.95
  WS02004407WS02004409 CONDUIT    939.85     0  03:03      1.69    0.33    0.68
  WS02004406WS02004407 CONDUIT    939.98     0  03:03      1.60    0.42    0.70
  WS02004405WS02004406 CONDUIT    940.01     0  03:03      1.20    1.85    1.00
  WS02004404WS02004405 CONDUIT    940.58     0  03:02      1.20    9.22    1.00
  WS02004403WS02004404 CONDUIT    940.28     0  03:02      1.20    0.68    1.00
  WS02004402WS02004403 CONDUIT    939.80     0  03:02      1.20    1.35    1.00
  WS02004139WS02001211 CONDUIT    384.56     0  03:17      0.90    0.49    0.64
  WS02004138WS02004139 CONDUIT    395.52     0  00:00      3.64    0.08    0.47
  WS02003067WS02003066 CONDUIT    939.16     0  03:04      1.65    0.30    0.50
  WS02001213WS02003059 CONDUIT    405.84     0  03:17      0.89    0.67    0.87
  WS02001212WS02001213 CONDUIT    400.54     0  03:17      1.32    0.62    0.56
  WS02001211WS02001212 CONDUIT    396.63     0  03:16      0.78    0.30    0.71
  WS02003072WS02003073 CONDUIT   1330.46     0  03:06      1.96    2.87    0.58
  WS02003069WS02003072 CONDUIT   1330.24     0  03:06      1.82    0.64    0.62
  WS02003060WS02003069 CONDUIT   1330.23     0  03:05      2.03    0.52    0.56
  WS02003059WS02003060 CONDUIT    412.44     0  03:16      0.95    0.27    0.77
  HS02004901HS02004770 CONDUIT     37.23     0  03:01      0.10    0.14    0.53
  HS02004876HS02004881 CONDUIT    127.64     0  03:01      1.21    1.36    0.15
  HS02004870HS02004876 CONDUIT    103.10     0  03:01      0.82    0.07    0.18
  HS02004842HS02004848 CONDUIT     16.84     0  03:01      0.07    0.01    0.33
  HS02004837HS02004842 CONDUIT     17.91     0  03:03      0.42    0.01    0.35
  HS02004830HS02004837 CONDUIT     64.65     0  03:01      0.67    0.06    0.14
  HS02004824HS02004830 CONDUIT     64.12     0  03:02      0.62    0.08    0.16
  HS02004817HS02004824 CONDUIT    123.86     0  03:01      0.31    0.06    0.58
  HS02004770HS02004777 CONDUIT    184.98     0  03:01      0.49    0.34    0.54
  HS02004799HS02004480 CONDUIT    444.37     0  03:01      1.07    0.56    0.60
  HS02004792HS02004799 CONDUIT    408.48     0  03:01      1.20    0.25    0.49
  HS02004788HS02004792 CONDUIT    232.95     0  03:02      1.28    0.15    0.26
  HS02004785HS02004788 CONDUIT    181.79     0  03:02      0.91    1.37    0.29
  HS02004777HS02004785 CONDUIT    182.06     0  03:01      0.57    0.22    0.45
  HS02004480HS02004478 CONDUIT    517.37     0  03:01      1.55    2.18    0.48
  HS02004479HS02004480 CONDUIT     77.33     0  03:02      0.30    0.07    0.57
  HS02004862HS02004870 CONDUIT     79.03     0  03:01      0.80    0.09    0.14
  HS02004848HS02004852 CONDUIT     37.85     0  03:01      0.53    0.04    0.10
  HS02004856HS02004862 CONDUIT     54.77     0  03:01      0.59    0.05    0.13
  HS02004852HS02004856 CONDUIT     37.76     0  03:02      0.34    0.04    0.16
  HS02004802HS02004478 CONDUIT    170.15     0  03:04      0.54    0.15    0.48
  HS02004478WS02006287 CONDUIT    677.68     0  03:02      2.11    0.19    0.36
  HS02004817HS02004807 CONDUIT    128.13     0  03:04      0.25    0.08    0.75
  HS02004807HS02004802 CONDUIT    165.31     0  03:04      0.46    0.32    0.53
  YS02001759YS02001757 CONDUIT    622.67     0  02:42      0.79    0.44    1.00
  YS02001762YS02001759 CONDUIT    317.59     0  02:42      0.40    0.37    1.00
  YS02001765YS02001762 CONDUIT    316.84     0  02:42      0.40    0.30    1.00
  YS02001770YS02001767 CONDUIT    316.69     0  02:42      0.40    1.25    1.00
  YS02001774YS02001770 CONDUIT    670.01     0  03:19      0.85    0.43    1.00
  YS02001779YS02001774 CONDUIT    669.73     0  03:19      0.85    0.34    1.00
  YS02001649YS02001757 CONDUIT    876.67     0  02:40      1.12    0.53    1.00
  YS02001767YS02001765 CONDUIT    316.77     0  02:42      0.40    0.40    1.00
  YS02006561YS02001783 CONDUIT   1002.67     0  02:45      2.25    0.52    1.00
  YS02001783YS02001784 CONDUIT   1003.10     0  02:45      2.00    1.38    1.00
  YS02001784YS02001785 CONDUIT   1003.82     0  02:46      2.03    2.34    1.00
  YS02001788YS02001790 CONDUIT    982.80     0  03:29      2.50    0.72    1.00
  YS02001790YS02001791 CONDUIT   1025.94     0  02:44      3.15    1.12    1.00
  YS02001791YS02001793 CONDUIT    983.73     0  03:33      6.12    0.42    1.00
  YS02001910YS02001907 CONDUIT    593.40     0  02:50      0.76    0.33    1.00
  YS02001786YS02001788 CONDUIT    989.46     0  02:45      2.34    1.91    1.00
  YS02001915YS02001910 CONDUIT    593.13     0  02:50      0.76    0.29    1.00
  YS02001918YS02001915 CONDUIT    322.88     0  02:50      0.45    0.18    1.00
  YS02001923YS02001920 CONDUIT    317.28     0  02:50      0.75    0.14    1.00
  YS02001926YS02001923 CONDUIT    320.38     0  02:50      0.86    0.46    1.00
  YS02001929YS02001926 CONDUIT    273.15     0  02:49      0.92    0.13    0.92
  YS02001920YS02001918 CONDUIT    320.72     0  02:50      0.72    0.31    1.00
  YS02001629YS02163301 CONDUIT    203.61     0  02:34      0.26    0.25    1.00
  YS02001619YS02001622 CONDUIT    381.74     0  03:01      0.59    0.56    1.00
  YS02001622YS02001625 CONDUIT    380.65     0  03:01      0.48    0.20    1.00
  YS02001625YS02001629 CONDUIT    197.51     0  02:39      0.25    0.09    1.00
  YS02163301YS02001633 CONDUIT    208.31     0  02:34      0.27    0.20    1.00
  YS02163601YS02164001 CONDUIT    414.55     0  02:39      0.53    0.37    1.00
  YS02164001YS02001641 CONDUIT    414.44     0  02:39      0.53    0.57    1.00
  YS02001641YS02001644 CONDUIT    414.91     0  02:39      0.53    1.34    1.00
  YS02001647YS02001649 CONDUIT    776.48     0  03:19      0.99    0.41    1.00
  YS02006553YS02006556 CONDUIT    710.31     0  03:46      0.90    0.61    1.00
  YS02006556YS02006558 CONDUIT    710.39     0  03:46      0.90    0.56    1.00
  YSB6556YSB1171       CONDUIT     42.83     0  03:02      0.13    0.04    0.82
  YS02001907YS02006553 CONDUIT    710.30     0  03:46      0.79    0.84    1.00
  YS02006558YS02006561 CONDUIT   1015.79     0  02:46      3.65    2.25    1.00
  YS02001633YS02163601 CONDUIT    414.78     0  02:39      0.53    0.44    1.00
  YS02001644YS02001647 CONDUIT    776.55     0  03:19      0.99    0.46    1.00
  YS02001745YS02001748 CONDUIT    585.18     0  02:32      1.46    0.23    0.97
  YS02001748YS02001751 CONDUIT    444.66     0  03:01      1.03    0.22    1.00
  YS02001751YS02001754 CONDUIT    444.86     0  03:01      0.88    0.21    1.00
  YS02001754YS02001757 CONDUIT    444.99     0  03:01      0.57    0.18    1.00
  YS02001882YS02001884 CONDUIT     17.45     0  04:12      0.12    0.02    1.00
  YS02001884YS02001887 CONDUIT     32.82     0  04:12      0.08    0.04    1.00
  YS02001890YS02001895 CONDUIT    517.91     0  02:58      0.66    0.24    1.00
  YS02001895YS02001898 CONDUIT    518.14     0  02:58      0.66    0.90    1.00
  YS02001898YS02001901 CONDUIT    517.60     0  02:58      0.66    0.33    1.00
  YS02001901YS02001904 CONDUIT    517.71     0  02:55      0.66    0.80    1.00
  YS02001904YS02001907 CONDUIT    518.08     0  02:58      0.66    0.18    1.00
  YS02001887YS02001890 CONDUIT    680.64     0  03:01      0.87    1.16    1.00
  YS02001652YS02001649 CONDUIT    504.06     0  03:01      0.64    0.25    1.00
  YS02001655YS02001652 CONDUIT    504.00     0  03:01      0.94    0.24    1.00
  YS02001658YS02001655 CONDUIT    503.25     0  03:01      1.18    0.21    1.00
  YS02001661YS02001658 CONDUIT    621.26     0  02:29      1.52    0.24    1.00
  YS02001664YS02001661 CONDUIT    653.49     0  02:43      1.43    0.20    0.77
  YSB1154YSB6556       CONDUIT     43.27     0  03:01      0.18    0.08    0.73
  YSB1174YSB1171       CONDUIT     36.64     0  03:01      0.11    0.06    0.85
  YSB1171HS02004479    CONDUIT     75.47     0  03:02      0.54    0.05    0.68
  HS02004881HS02006253 CONDUIT    152.92     0  02:55      2.36    0.03    0.54
  YS02001793JiankangQianchi CONDUIT    983.21     0  03:29     16.94    0.08    1.00
  YS02001757CaochengTiaoxuchi CONDUIT   1678.04     0  02:40      2.17    0.74    1.00
  WSF200WS02003060     CONDUIT    939.72     0  03:04      1.93    0.21    0.45
  1                    CONDUIT   1332.60     0  03:07      3.59    0.46    0.48
  CC-Pump-1            PUMP       200.00     0  03:30              1.00
  CC-Pump-2            PUMP       200.00     0  03:30              1.00
  JK-Pump-1            PUMP       300.00     0  00:00              1.00
  JK-Pump-2            PUMP       683.00     0  02:20              1.00
  XR-Pump-1            PUMP        95.00     0  00:00              1.00
  XR-Pump-2            PUMP        95.00     0  00:00              1.00
  XR-Pump-3            PUMP        95.00     0  00:00              1.00
  XR-Pump-4            PUMP        95.00     0  00:00              1.00
  
  
  ***************************
  Flow Classification Summary
  ***************************
  
  -------------------------------------------------------------------------------------
                      Adjusted    ---------- Fraction of Time in Flow Class ---------- 
                       /Actual         Up    Down  Sub   Sup   Up    Down  Norm  Inlet 
  Conduit               Length    Dry  Dry   Dry   Crit  Crit  Crit  Crit  Ltd   Ctrl  
  -------------------------------------------------------------------------------------
  WS02003066WSF200        1.00   0.01  0.02  0.00  0.00  0.97  0.00  0.00  0.49  0.00
  WS02006287WS02006284    1.00   0.03  0.01  0.00  0.64  0.32  0.00  0.00  0.65  0.00
  WS02006284WS02006280    1.00   0.04  0.00  0.00  0.00  0.00  0.00  0.96  0.00  0.00
  WS02006280WS02006229    1.00   0.04  0.00  0.00  0.01  0.02  0.00  0.94  0.00  0.00
  WS02006229WS02006228    1.00   0.00  0.00  0.00  1.00  0.00  0.00  0.00  0.00  0.00
  WS02006256WS02006235    1.00   0.00  0.00  0.00  1.00  0.00  0.00  0.00  0.00  0.00
  WS02006253WS02006251    1.00   0.02  0.01  0.00  0.96  0.00  0.00  0.00  0.00  0.00
  WS02006252WS02006251    1.00   0.17  0.00  0.00  0.16  0.00  0.67  0.00  0.00  0.00
  WS02006251WS02006249    1.00   0.00  0.00  0.00  1.00  0.00  0.00  0.00  0.22  0.00
  WS02006249WS02006248    1.00   0.00  0.01  0.00  0.92  0.00  0.08  0.00  0.00  0.00
  WS02006248WS02006247    1.00   0.01  0.00  0.00  0.99  0.00  0.00  0.00  0.14  0.00
  WS02006247WS02006245    1.00   0.00  0.00  0.00  1.00  0.00  0.00  0.00  0.00  0.00
  WS02006245WS02006243    1.00   0.00  0.00  0.00  0.97  0.00  0.00  0.03  0.00  0.00
  WS02006243WS02006242    1.00   0.00  0.00  0.00  1.00  0.00  0.00  0.00  0.21  0.00
  WS02006242WS02006240    1.00   0.00  0.00  0.00  1.00  0.00  0.00  0.00  0.00  0.00
  WS02006240WS02006239    1.00   0.00  0.00  0.00  0.95  0.00  0.00  0.04  0.01  0.00
  WS02006239WS02006238    1.00   0.00  0.00  0.00  1.00  0.00  0.00  0.00  0.13  0.00
  WS02006238WS02006235    1.00   0.00  0.00  0.00  1.00  0.00  0.00  0.00  0.00  0.00
  WS02006235WS02006234    1.00   0.00  0.00  0.00  0.96  0.00  0.04  0.00  0.00  0.00
  WS02006234WS02006232    1.00   0.00  0.00  0.00  1.00  0.00  0.00  0.00  0.09  0.00
  WS02006232WS02006231    1.00   0.00  0.00  0.00  1.00  0.00  0.00  0.00  0.00  0.00
  WS02006231WS02006230    1.00   0.00  0.00  0.00  0.81  0.00  0.19  0.00  0.00  0.00
  WS02006230WS02006229    1.00   0.00  0.00  0.00  1.00  0.00  0.00  0.00  0.00  0.00
  WS02006228WS02006109    1.00   0.00  0.00  0.00  1.00  0.00  0.00  0.00  0.00  0.00
  WS02006116WS02004401    1.00   0.01  0.00  0.00  0.99  0.00  0.00  0.00  0.00  0.00
  WS02006115WS02006116    1.00   0.01  0.00  0.00  0.99  0.00  0.00  0.00  0.00  0.00
  WS02006113WS02006111    1.00   0.01  0.00  0.00  0.03  0.97  0.00  0.00  0.15  0.00
  WS02006112WS02006115    1.00   0.01  0.00  0.00  0.99  0.00  0.00  0.00  0.00  0.00
  WS02006111WS02006112    1.00   0.01  0.00  0.00  0.99  0.00  0.00  0.00  0.88  0.00
  WS02006110WS02006113    1.00   0.00  0.00  0.00  0.99  0.00  0.00  0.00  0.00  0.00
  WS02006109WS02006110    1.00   0.00  0.00  0.00  0.99  0.00  0.00  0.00  0.00  0.00
  WS02004411WS02004412    1.00   0.02  0.00  0.00  0.98  0.00  0.00  0.00  0.00  0.00
  WS02004401WS02004402    1.00   0.01  0.00  0.00  0.99  0.00  0.00  0.00  0.00  0.00
  WS02004413WS02003067    1.00   0.02  0.01  0.00  0.00  0.00  0.98  0.00  0.00  0.00
  WS02004412WS02004413    1.00   0.02  0.00  0.00  0.98  0.00  0.00  0.00  0.01  0.00
  WS02004410WS02004411    1.00   0.02  0.00  0.00  0.98  0.00  0.00  0.00  0.00  0.00
  WS02004409WS02004410    1.00   0.02  0.00  0.00  0.98  0.00  0.00  0.00  0.02  0.00
  WS02004407WS02004409    1.00   0.02  0.00  0.00  0.98  0.00  0.00  0.00  0.95  0.00
  WS02004406WS02004407    1.00   0.00  0.01  0.00  0.99  0.00  0.00  0.00  0.00  0.00
  WS02004405WS02004406    1.00   0.00  0.00  0.00  1.00  0.00  0.00  0.00  0.00  0.00
  WS02004404WS02004405    1.00   0.00  0.00  0.00  1.00  0.00  0.00  0.00  0.00  0.00
  WS02004403WS02004404    1.00   0.00  0.01  0.00  0.99  0.00  0.00  0.00  0.00  0.00
  WS02004402WS02004403    1.00   0.01  0.00  0.00  0.99  0.00  0.00  0.00  0.00  0.00
  WS02004139WS02001211    1.00   0.00  0.00  0.00  1.00  0.00  0.00  0.00  0.00  0.00
  WS02004138WS02004139    1.00   0.00  0.00  0.00  1.00  0.00  0.00  0.00  1.00  0.00
  WS02003067WS02003066    1.00   0.02  0.00  0.00  0.97  0.00  0.00  0.00  0.00  0.00
  WS02001213WS02003059    1.00   0.00  0.00  0.00  1.00  0.00  0.00  0.00  0.00  0.00
  WS02001212WS02001213    1.00   0.00  0.00  0.00  0.94  0.00  0.06  0.00  0.00  0.00
  WS02001211WS02001212    1.00   0.00  0.00  0.00  1.00  0.00  0.00  0.00  0.00  0.00
  WS02003072WS02003073    1.00   0.00  0.00  0.00  0.00  0.00  0.00  1.00  0.00  0.00
  WS02003069WS02003072    1.00   0.00  0.00  0.00  1.00  0.00  0.00  0.00  0.10  0.00
  WS02003060WS02003069    1.00   0.00  0.00  0.00  0.99  0.01  0.00  0.00  0.08  0.00
  WS02003059WS02003060    1.00   0.00  0.00  0.00  1.00  0.00  0.00  0.00  0.01  0.00
  HS02004901HS02004770    1.00   0.03  0.00  0.00  0.96  0.00  0.00  0.00  0.00  0.00
  HS02004876HS02004881    1.00   0.01  0.00  0.00  0.92  0.08  0.00  0.00  0.00  0.00
  HS02004870HS02004876    1.00   0.00  0.00  0.00  0.99  0.00  0.00  0.00  0.95  0.00
  HS02004842HS02004848    1.00   0.00  0.04  0.00  0.96  0.00  0.00  0.00  0.54  0.00
  HS02004837HS02004842    1.00   0.00  0.00  0.00  1.00  0.00  0.00  0.00  0.11  0.00
  HS02004830HS02004837    1.00   0.00  0.00  0.00  1.00  0.00  0.00  0.00  0.99  0.00
  HS02004824HS02004830    1.00   0.00  0.00  0.00  1.00  0.00  0.00  0.00  0.01  0.00
  HS02004817HS02004824    1.00   0.00  0.00  0.00  1.00  0.00  0.00  0.00  0.97  0.00
  HS02004770HS02004777    1.00   0.00  0.03  0.00  0.96  0.00  0.00  0.00  0.03  0.00
  HS02004799HS02004480    1.00   0.00  0.01  0.00  0.96  0.00  0.03  0.00  0.00  0.00
  HS02004792HS02004799    1.00   0.00  0.00  0.00  1.00  0.00  0.00  0.00  0.98  0.00
  HS02004788HS02004792    1.00   0.00  0.00  0.00  1.00  0.00  0.00  0.00  0.98  0.00
  HS02004785HS02004788    1.00   0.00  0.00  0.00  1.00  0.00  0.00  0.00  0.00  0.00
  HS02004777HS02004785    1.00   0.00  0.00  0.00  1.00  0.00  0.00  0.00  0.12  0.00
  HS02004480HS02004478    1.00   0.04  0.00  0.00  0.72  0.00  0.00  0.24  0.00  0.00
  HS02004479HS02004480    1.00   0.01  0.00  0.00  0.99  0.00  0.00  0.00  0.12  0.00
  HS02004862HS02004870    1.00   0.00  0.00  0.00  1.00  0.00  0.00  0.00  0.04  0.00
  HS02004848HS02004852    1.00   0.04  0.00  0.00  0.96  0.00  0.00  0.00  0.64  0.00
  HS02004856HS02004862    1.00   0.00  0.04  0.00  0.96  0.00  0.00  0.00  0.83  0.00
  HS02004852HS02004856    1.00   0.03  0.00  0.00  0.96  0.00  0.00  0.00  0.81  0.00
  HS02004802HS02004478    1.00   0.04  0.00  0.00  0.96  0.00  0.00  0.00  0.02  0.00
  HS02004478WS02006287    1.00   0.04  0.00  0.00  0.78  0.17  0.00  0.00  0.65  0.00
  HS02004817HS02004807    1.00   0.00  0.04  0.00  0.96  0.00  0.00  0.00  0.01  0.00
  HS02004807HS02004802    1.00   0.04  0.00  0.00  0.96  0.00  0.00  0.00  0.00  0.00
  YS02001759YS02001757    1.00   0.00  0.00  0.00  1.00  0.00  0.00  0.00  0.16  0.00
  YS02001762YS02001759    1.00   0.00  0.00  0.00  1.00  0.00  0.00  0.00  0.03  0.00
  YS02001765YS02001762    1.00   0.00  0.00  0.00  1.00  0.00  0.00  0.00  0.14  0.00
  YS02001770YS02001767    1.00   0.00  0.00  0.00  1.00  0.00  0.00  0.00  0.00  0.00
  YS02001774YS02001770    1.00   0.00  0.04  0.00  0.96  0.00  0.00  0.00  0.03  0.00
  YS02001779YS02001774    1.00   0.00  0.00  0.00  1.00  0.00  0.00  0.00  0.19  0.00
  YS02001649YS02001757    1.00   0.00  0.00  0.00  1.00  0.00  0.00  0.00  0.16  0.00
  YS02001767YS02001765    1.00   0.00  0.00  0.00  1.00  0.00  0.00  0.00  0.00  0.00
  YS02006561YS02001783    1.00   0.05  0.00  0.00  0.35  0.60  0.00  0.00  0.45  0.00
  YS02001783YS02001784    1.00   0.00  0.05  0.00  0.95  0.00  0.00  0.00  0.01  0.00
  YS02001784YS02001785    1.00   0.00  0.00  0.00  1.00  0.00  0.00  0.00  0.18  0.00
  YS02001788YS02001790    1.00   0.00  0.00  0.00  0.38  0.62  0.00  0.00  0.37  0.00
  YS02001790YS02001791    1.00   0.00  0.00  0.00  0.36  0.64  0.00  0.00  0.46  0.00
  YS02001791YS02001793    1.00   0.00  0.00  0.00  0.40  0.59  0.00  0.00  0.03  0.00
  YS02001910YS02001907    1.00   0.00  0.00  0.00  0.99  0.00  0.00  0.01  0.12  0.00
  YS02001786YS02001788    1.00   0.00  0.00  0.00  0.37  0.63  0.00  0.00  0.00  0.00
  YS02001915YS02001910    1.00   0.00  0.00  0.00  0.99  0.01  0.00  0.00  0.16  0.00
  YS02001918YS02001915    1.00   0.00  0.00  0.00  0.99  0.01  0.00  0.00  0.53  0.00
  YS02001923YS02001920    1.00   0.00  0.00  0.00  1.00  0.00  0.00  0.00  0.82  0.00
  YS02001926YS02001923    1.00   0.00  0.02  0.00  0.14  0.00  0.84  0.00  0.00  0.00
  YS02001929YS02001926    1.00   0.00  0.03  0.00  0.97  0.00  0.00  0.00  0.75  0.00
  YS02001920YS02001918    1.00   0.00  0.00  0.00  1.00  0.00  0.00  0.00  0.00  0.00
  YS02001629YS02163301    1.00   0.04  0.00  0.00  0.96  0.00  0.00  0.00  0.00  0.00
  YS02001619YS02001622    1.00   0.03  0.00  0.00  0.97  0.00  0.00  0.00  0.00  0.00
  YS02001622YS02001625    1.00   0.04  0.00  0.00  0.96  0.00  0.00  0.00  0.05  0.00
  YS02001625YS02001629    1.00   0.04  0.02  0.00  0.93  0.00  0.02  0.00  0.00  0.00
  YS02163301YS02001633    1.00   0.00  0.04  0.00  0.96  0.00  0.00  0.00  0.00  0.00
  YS02163601YS02164001    1.00   0.00  0.02  0.00  0.98  0.00  0.00  0.00  0.00  0.00
  YS02164001YS02001641    1.00   0.00  0.02  0.00  0.98  0.00  0.00  0.00  0.06  0.00
  YS02001641YS02001644    1.00   0.00  0.00  0.00  1.00  0.00  0.00  0.00  0.00  0.00
  YS02001647YS02001649    1.00   0.00  0.05  0.00  0.95  0.00  0.00  0.00  0.01  0.00
  YS02006553YS02006556    1.00   0.01  0.00  0.00  0.99  0.00  0.00  0.00  0.03  0.00
  YS02006556YS02006558    1.00   0.00  0.00  0.00  1.00  0.00  0.00  0.00  0.00  0.00
  YSB6556YSB1171          1.00   0.01  0.02  0.00  0.97  0.00  0.00  0.00  0.00  0.00
  YS02001907YS02006553    1.00   0.00  0.01  0.00  0.99  0.00  0.00  0.00  0.00  0.00
  YS02006558YS02006561    1.00   0.05  0.00  0.00  0.13  0.82  0.00  0.00  0.46  0.00
  YS02001633YS02163601    1.00   0.00  0.00  0.00  1.00  0.00  0.00  0.00  0.15  0.00
  YS02001644YS02001647    1.00   0.00  0.05  0.00  0.95  0.00  0.00  0.00  0.00  0.00
  YS02001745YS02001748    1.00   0.00  0.00  0.00  0.91  0.00  0.00  0.08  0.04  0.00
  YS02001748YS02001751    1.00   0.00  0.00  0.00  0.97  0.03  0.00  0.00  0.15  0.00
  YS02001751YS02001754    1.00   0.00  0.00  0.00  0.94  0.00  0.00  0.05  0.02  0.00
  YS02001754YS02001757    1.00   0.00  0.00  0.00  1.00  0.00  0.00  0.00  0.18  0.00
  YS02001882YS02001884    1.00   0.04  0.00  0.00  0.96  0.00  0.00  0.00  0.00  0.00
  YS02001884YS02001887    1.00   0.02  0.01  0.00  0.97  0.00  0.00  0.00  0.00  0.00
  YS02001890YS02001895    1.00   0.00  0.04  0.00  0.96  0.00  0.00  0.00  0.00  0.00
  YS02001895YS02001898    1.00   0.04  0.00  0.00  0.95  0.00  0.01  0.00  0.00  0.00
  YS02001898YS02001901    1.00   0.04  0.00  0.00  0.96  0.00  0.00  0.00  0.01  0.00
  YS02001901YS02001904    1.00   0.04  0.00  0.00  0.96  0.00  0.00  0.00  0.00  0.00
  YS02001904YS02001907    1.00   0.00  0.04  0.00  0.96  0.00  0.00  0.00  0.00  0.00
  YS02001887YS02001890    1.00   0.00  0.00  0.00  0.99  0.00  0.01  0.00  0.00  0.00
  YS02001652YS02001649    1.00   0.00  0.00  0.00  1.00  0.00  0.00  0.00  0.17  0.00
  YS02001655YS02001652    1.00   0.00  0.00  0.00  0.94  0.00  0.00  0.05  0.02  0.00
  YS02001658YS02001655    1.00   0.00  0.04  0.00  0.93  0.03  0.00  0.00  0.10  0.00
  YS02001661YS02001658    1.00   0.04  0.00  0.00  0.91  0.05  0.00  0.00  0.11  0.00
  YS02001664YS02001661    1.00   0.03  0.00  0.00  0.92  0.04  0.00  0.00  0.20  0.00
  YSB1154YSB6556          1.00   0.03  0.00  0.00  0.97  0.00  0.00  0.00  0.02  0.00
  YSB1174YSB1171          1.00   0.02  0.01  0.00  0.97  0.00  0.00  0.00  0.00  0.00
  YSB1171HS02004479       1.00   0.01  0.00  0.00  0.98  0.00  0.00  0.00  0.10  0.00
  HS02004881HS02006253    1.00   0.02  0.00  0.00  0.78  0.03  0.00  0.17  0.62  0.00
  YS02001793JiankangQianchi    1.00   0.00  0.00  0.00  0.68  0.31  0.00  0.00  0.41  0.00
  YS02001757CaochengTiaoxuchi    1.00   0.00  0.07  0.00  0.93  0.00  0.00  0.00  0.00  0.00
  WSF200WS02003060        1.00   0.00  0.01  0.00  0.97  0.02  0.00  0.00  0.33  0.00
  1                       1.00   0.00  0.00  0.00  0.00  1.00  0.00  0.00  0.42  0.00
  
  
  *************************
  Conduit Surcharge Summary
  *************************
  
  ----------------------------------------------------------------------------
                                                           Hours        Hours 
                         --------- Hours Full --------   Above Full   Capacity
  Conduit                Both Ends  Upstream  Dnstream   Normal Flow   Limited
  ----------------------------------------------------------------------------
  WS02006229WS02006228        4.31      4.44      4.31      5.37         4.30
  WS02006256WS02006235        6.15      6.15      6.84      4.67         0.01
  WS02006253WS02006251        2.49      2.49      2.61      0.01         0.01
  WS02006252WS02006251        2.01      2.01      3.08      2.65         0.01
  WS02006251WS02006249        2.51      2.52      2.66      1.77         1.48
  WS02006249WS02006248        2.53      2.53      2.66      4.12         0.01
  WS02006248WS02006247        2.64      2.64      2.93      0.01         0.01
  WS02006247WS02006245        2.89      2.97      2.89      4.41         2.73
  WS02006245WS02006243        2.94      2.95      3.00      0.47         0.41
  WS02006243WS02006242        3.03      3.03      3.45      0.01         0.01
  WS02006242WS02006240        3.22      3.22      3.74      2.94         0.01
  WS02006240WS02006239        3.28      3.31      3.51      1.61         1.05
  WS02006239WS02006238        3.78      3.83      3.95      1.77         1.29
[...]
  YS02001779YS02001774        5.56      5.56      5.74      0.01         0.01
  YS02001649YS02001757        5.76      5.76      5.86      0.01         0.01
  YS02001767YS02001765        5.69      5.69      5.72      0.01         0.01
  YS02006561YS02001783        0.92      0.92      1.18      0.01         0.01
  YS02001783YS02001784        1.14      1.18      1.14      1.56         1.14
  YS02001784YS02001785        1.02      1.14      1.02      2.50         1.02
  YS02001788YS02001790        0.97      0.97      1.77      0.01         0.01
  YS02001790YS02001791        1.76      1.77      1.86      1.07         1.03
  YS02001791YS02001793        1.86      1.86      2.34      0.01         0.01
  YS02001910YS02001907        1.24      1.24      1.89      0.01         0.01
  YS02001786YS02001788        0.97      1.02      0.97      2.05         0.97
  YS02001915YS02001910        1.04      1.04      1.24      0.01         0.01
  YS02001918YS02001915        0.88      0.88      1.04      0.01         0.01
  YS02001923YS02001920        0.73      0.73      0.90      0.01         0.01
  YS02001926YS02001923        0.01      0.01      0.01      0.01         0.01
  YS02001929YS02001926        0.01      0.01      0.01      0.01         0.01
  YS02001920YS02001918        0.88      0.88      0.90      0.01         0.01
  YS02001629YS02163301        5.67      5.67      5.68      0.01         0.01
  YS02001619YS02001622        5.37      5.37      5.41      0.01         0.01
  YS02001622YS02001625        5.41      5.41      5.64      0.01         0.01
  YS02001625YS02001629        5.38      5.38      5.64      0.01         0.01
  YS02163301YS02001633        5.68      5.68      5.72      0.01         0.01
  YS02163601YS02164001        5.72      5.72      5.75      0.01         0.01
  YS02164001YS02001641        5.72      5.72      5.73      0.01         0.03
  YS02001641YS02001644        5.72      5.73      5.73      1.72         1.91
  YS02001647YS02001649        5.62      5.62      5.76      0.01         0.01
  YS02006553YS02006556        1.47      1.47      1.96      0.01         0.01
  YS02006556YS02006558        1.69      1.69      2.07      0.01         0.01
  YSB6556YSB1171              0.01      0.01      0.07      0.01         0.01
  YS02001907YS02006553        2.54      2.54      2.75      0.01         0.01
  YS02006558YS02006561        0.99      1.43      0.99      2.35         0.99
  YS02001633YS02163601        5.71      5.71      5.75      0.01         0.01
  YS02001644YS02001647        5.62      5.62      5.73      0.01         0.01
  YS02001745YS02001748        0.01      0.01      5.22      0.01         0.01
  YS02001748YS02001751        5.27      5.27      5.38      0.01         0.01
  YS02001751YS02001754        5.38      5.38      5.57      0.01         0.01
  YS02001754YS02001757        5.62      5.62      5.86      0.01         0.01
  YS02001882YS02001884        1.06      1.06      1.09      0.01         0.01
  YS02001884YS02001887        1.14      1.14      1.17      0.01         0.01
  YS02001890YS02001895        1.03      1.03      1.26      0.01         0.01
  YS02001895YS02001898        1.02      1.02      1.03      0.01         0.01
  YS02001898YS02001901        1.04      1.04      1.13      0.01         0.01
  YS02001901YS02001904        1.10      1.10      1.13      0.01         0.01
  YS02001904YS02001907        1.10      1.10      2.00      0.01         0.01
  YS02001887YS02001890        1.19      1.19      1.22      0.16         0.01
  YS02001652YS02001649        5.63      5.63      5.76      0.01         0.01
  YS02001655YS02001652        5.39      5.39      5.61      0.01         0.01
  YS02001658YS02001655        5.25      5.25      5.39      0.01         0.01
  YS02001661YS02001658        0.12      0.12      5.25      0.01         0.01
  YS02001664YS02001661        0.01      0.01      1.51      0.01         0.01
  HS02004881HS02006253        0.01      0.01      1.61      0.01         0.01
  YS02001793JiankangQianchi        2.22      2.22      4.10      0.01         0.01
  YS02001757CaochengTiaoxuchi        5.11      5.11      5.86      0.01         0.01
  
  
  ***************
  Pumping Summary
  ***************
  
  ---------------------------------------------------------------------------------------------------------
                                                  Min       Avg       Max     Total     Power    % Time Off
                        Percent   Number of      Flow      Flow      Flow    Volume     Usage    Pump Curve
  Pump                 Utilized   Start-Ups       LPS       LPS       LPS  10^6 ltr     Kw-hr    Low   High
  ---------------------------------------------------------------------------------------------------------
  CC-Pump-1               61.70           2      0.00    185.46    200.00     3.180      3.65    0.0    0.0
  CC-Pump-2               48.93           5      0.00    101.79    200.00     1.740      2.44    0.0    0.0
  JK-Pump-1               65.95           4      0.00    229.36    300.00     4.070     62.84    0.0    0.0
  JK-Pump-2               51.07           4      0.00    429.27    683.00     6.252     88.26    0.0   95.6
  XR-Pump-1               97.87           2      0.00     93.23     95.00     2.508     23.19    0.0    0.0
  XR-Pump-2               95.74           3      0.00     93.21     95.00     2.451     22.19    0.0    0.0
  XR-Pump-3               95.74           3      0.00     92.75     95.00     2.394     20.88    0.0    0.0
  XR-Pump-4               95.74           3      0.00     92.75     95.00     2.394     20.88    0.0    0.0
  
  
  ***************************
  Link Pollutant Load Summary
  ***************************
  
  ------------------------------------------------------------------------------------------
                                 COD            SS            TN            TP         NH4-N
  Link                            kg            kg            kg            kg            kg
  ------------------------------------------------------------------------------------------
  WS02003066WSF200           945.078      1760.627        24.359         2.103        12.770
  WS02006287WS02006284       319.483       608.116        10.315         1.015         5.679
  WS02006284WS02006280       319.962       608.899        10.361         1.021         5.708
  WS02006280WS02006229       319.909       608.791        10.359         1.021         5.706
  WS02006229WS02006228       945.556      1761.280        23.844         2.026        12.425
  WS02006256WS02006235       221.104       406.751         5.026         0.400         2.563
  WS02006253WS02006251        61.061       120.145         1.344         0.100         0.666
  WS02006252WS02006251       414.019       755.942         8.579         0.610         4.205
  WS02006251WS02006249       466.551       860.722         9.752         0.699         4.789
  WS02006249WS02006248       415.992       766.102         8.708         0.624         4.278
  WS02006248WS02006247       415.181       764.666         8.691         0.622         4.269
  WS02006247WS02006245       414.363       763.211         8.673         0.621         4.260
  WS02006245WS02006243       413.625       761.970         8.654         0.620         4.251
  WS02006243WS02006242       412.875       760.672         8.640         0.619         4.244
  WS02006242WS02006240       411.773       758.721         8.616         0.617         4.232
  WS02006240WS02006239       411.270       757.818         8.609         0.617         4.230
  WS02006239WS02006238       411.400       757.858         8.639         0.621         4.249
  WS02006238WS02006235       411.300       757.450         8.654         0.623         4.259
  WS02006235WS02006234       629.264      1158.845        13.570         1.012         6.761
  WS02006234WS02006232       628.759      1157.927        13.565         1.012         6.760
  WS02006232WS02006231       628.077      1156.718        13.549         1.011         6.752
  WS02006231WS02006230       627.305      1155.327        13.534         1.010         6.745
  WS02006230WS02006229       626.406      1153.792        13.509         1.008         6.731
  WS02006228WS02006109       944.774      1759.883        23.828         2.025        12.417
  WS02006116WS02004401       958.173      1784.051        24.671         2.128        12.929
  WS02006115WS02006116       959.514      1786.417        24.708         2.131        12.948
  WS02006113WS02006111       950.463      1768.476        24.567         2.120        12.886
  WS02006112WS02006115       960.908      1788.859        24.752         2.135        12.972
  WS02006111WS02006112       950.073      1767.824        24.557         2.119        12.881
  WS02006110WS02006113       951.231      1769.847        24.591         2.122        12.899
  WS02006109WS02006110       952.405      1771.931        24.629         2.126        12.920
  WS02004411WS02004412       948.753      1767.094        24.484         2.115        12.839
  WS02004401WS02004402       956.871      1781.761        24.631         2.124        12.907
  WS02004413WS02003067       945.856      1762.066        24.379         2.105        12.780
  WS02004412WS02004413       947.420      1764.754        24.442         2.112        12.816
  WS02004410WS02004411       949.936      1769.196        24.519         2.119        12.858
  WS02004409WS02004410       951.141      1771.321        24.557         2.122        12.879
  WS02004407WS02004409       952.217      1773.240        24.586         2.125        12.894
  WS02004406WS02004407       952.616      1773.992        24.593         2.125        12.897
  WS02004405WS02004406       954.152      1776.702        24.649         2.131        12.929
  WS02004404WS02004405       955.114      1778.469        24.652         2.130        12.927
  WS02004403WS02004404       954.658      1777.859        24.564         2.118        12.870
  WS02004402WS02004403       955.687      1779.666        24.597         2.121        12.889
  WS02004139WS02001211      1363.593      2264.734       110.573        13.496        68.154
  WS02004138WS02004139      1370.105      2275.604       111.078        13.557        68.464
  WS02003067WS02003066       945.311      1761.043        24.368         2.104        12.775
  WS02001213WS02003059      1396.112      2315.765       113.961        13.923        70.284
  WS02001212WS02001213      1405.515      2331.348       114.723        14.016        70.753
  WS02001211WS02001212      1407.777      2335.049       114.916        14.040        70.873
  WS02003072WS02003073      2440.454      4233.838       148.295        17.281        89.306
  WS02003069WS02003072      2445.834      4242.691       148.711        17.331        89.562
  WS02003060WS02003069      2448.467      4247.282       148.838        17.345        89.636
  WS02003059WS02003060      1392.643      2309.904       113.712        13.894        70.132
  HS02004901HS02004770        13.094        25.474         0.248         0.019         0.116
  HS02004876HS02004881        45.515        90.346         0.999         0.073         0.491
  HS02004870HS02004876        34.382        68.104         0.798         0.060         0.395
  HS02004842HS02004848         6.456        12.343         0.134         0.009         0.062
  HS02004837HS02004842        11.056        19.635         0.603         0.068         0.356
  HS02004830HS02004837        70.298       122.727         4.644         0.552         2.827
  HS02004824HS02004830        71.070       123.982         4.715         0.561         2.871
  HS02004817HS02004824        97.165       176.408         5.255         0.596         3.135
  HS02004770HS02004777        49.662        97.712         1.021         0.069         0.472
  HS02004799HS02004480       162.321       310.831         4.263         0.379         2.209
  HS02004792HS02004799       147.271       280.117         4.028         0.367         2.105
  HS02004788HS02004792        82.815       157.683         2.666         0.255         1.440
  HS02004785HS02004788        51.120       100.046         1.172         0.089         0.567
  HS02004777HS02004785        50.445        98.941         1.112         0.081         0.530
  HS02004480HS02004478       204.817       395.177         4.971         0.429         2.543
  HS02004479HS02004480        46.127        90.112         1.037         0.091         0.538
  HS02004862HS02004870        25.799        50.339         0.628         0.050         0.314
  HS02004848HS02004852        10.251        19.884         0.210         0.014         0.097
  HS02004856HS02004862        17.524        34.749         0.350         0.023         0.164
  HS02004852HS02004856        10.255        19.889         0.210         0.014         0.097
  HS02004802HS02004478       115.341       214.049         5.398         0.592         3.169
  HS02004478WS02006287       319.692       608.479        10.332         1.017         5.689
  HS02004817HS02004807        95.859       174.312         5.130         0.581         3.057
  HS02004807HS02004802       115.598       214.451         5.430         0.596         3.190
  YS02001759YS02001757       369.945       679.521         7.392         0.513         3.611
  YS02001762YS02001759       181.726       334.659         3.840         0.270         1.898
  YS02001765YS02001762       181.814       335.234         3.862         0.272         1.912
  YS02001770YS02001767       181.311       335.808         3.649         0.241         1.771
  YS02001774YS02001770       245.678       480.681         4.692         0.312         2.265
  YS02001779YS02001774       244.526       478.350         4.772         0.325         2.323
  YS02001649YS02001757       314.026       567.726         6.275         0.435         3.011
  YS02001767YS02001765       182.407       336.721         3.887         0.274         1.925
  YS02006561YS02001783      1021.920      1893.880        21.459         1.604        10.685
  YS02001783YS02001784      1021.769      1893.632        21.455         1.604        10.682
  YS02001784YS02001785      1029.083      1905.356        22.167         1.693        11.128
  YS02001788YS02001790      1029.685      1906.331        22.243         1.703        11.176
  YS02001790YS02001791      1030.761      1908.083        22.353         1.717        11.245
  YS02001791YS02001793      1030.707      1907.966        22.351         1.716        11.244
  YS02001910YS02001907       391.697       722.232         9.467         0.728         4.861
  YS02001786YS02001788      1029.296      1905.724        22.195         1.697        11.146
  YS02001915YS02001910       391.774       722.363         9.420         0.721         4.829
  YS02001918YS02001915       190.642       336.670         5.291         0.483         2.854
  YS02001923YS02001920       168.952       300.913         3.317         0.239         1.625
  YS02001926YS02001923       166.795       297.206         3.209         0.226         1.561
  YS02001929YS02001926       164.765       293.686         3.112         0.216         1.503
  YS02001920YS02001918       189.124       333.353         5.237         0.478         2.824
  YS02001629YS02163301        96.180       170.071         2.030         0.131         0.947
  YS02001619YS02001622       175.891       321.164         3.602         0.236         1.684
  YS02001622YS02001625       174.704       319.276         3.573         0.234         1.671
  YS02001625YS02001629        97.248       171.815         2.054         0.133         0.958
  YS02163301YS02001633        96.569       170.991         2.033         0.132         0.949
  YS02163601YS02164001       405.798       733.274         7.900         0.562         3.784
  YS02164001YS02001641       405.291       732.411         7.880         0.560         3.773
  YS02001641YS02001644       405.370       732.462         7.877         0.560         3.771
  YS02001647YS02001649       406.590       748.360         8.002         0.558         3.814
  YS02006553YS02006556       688.057      1264.415        14.834         1.138         7.472
  YS02006556YS02006558       687.964      1264.228        14.805         1.134         7.453
  YSB6556YSB1171              26.521        51.966         0.537         0.045         0.271
  YS02001907YS02006553       688.193      1264.692        14.843         1.139         7.478
  YS02006558YS02006561      1021.935      1893.902        21.459         1.604        10.684
  YS02001633YS02163601       406.508       734.379         7.881         0.558         3.768
  YS02001644YS02001647       412.071       758.385         8.094         0.565         3.857
  YS02001745YS02001748       248.915       465.690         5.384         0.366         2.661
  YS02001748YS02001751       247.386       462.705         5.452         0.378         2.712
  YS02001751YS02001754       246.391       461.065         5.433         0.378         2.704
  YS02001754YS02001757       247.158       462.211         5.598         0.400         2.811
  YS02001882YS02001884         2.647         4.560         0.054         0.004         0.027
  YS02001884YS02001887         6.873        12.181         0.135         0.011         0.067
  YS02001890YS02001895       450.967       846.451         8.302         0.624         4.049
  YS02001895YS02001898       450.810       846.249         8.295         0.624         4.046
  YS02001898YS02001901       450.595       845.874         8.291         0.623         4.044
  YS02001901YS02001904       450.432       845.640         8.297         0.624         4.048
  YS02001904YS02001907       450.611       845.898         8.349         0.631         4.082
  YS02001887YS02001890       468.322       880.866         8.646         0.653         4.223
  YS02001652YS02001649       195.746       364.631         3.933         0.284         1.846
  YS02001655YS02001652       196.236       365.436         3.946         0.285         1.852
  YS02001658YS02001655       195.698       364.592         3.858         0.273         1.795
  YS02001661YS02001658       199.131       370.724         3.928         0.278         1.827
  YS02001664YS02001661       218.364       402.333         4.363         0.307         2.026
  YSB1154YSB6556              26.085        51.270         0.486         0.038         0.239
  YSB1174YSB1171              18.022        35.563         0.361         0.029         0.181
  YSB1171HS02004479           46.091        90.056         1.040         0.092         0.540
  HS02004881HS02006253        51.554       102.728         1.101         0.079         0.539
  YS02001793JiankangQianchi      1031.086      1908.470        22.382         1.720        11.263
  YS02001757CaochengTiaoxuchi       658.161      1190.598        13.784         0.974         6.758
  WSF200WS02003060           944.784      1760.062        24.355         2.103        12.769
  1                         2447.080      4243.525       149.168        17.393        89.861
  CC-Pump-1                  267.481       488.421         5.540         0.393         2.715
  CC-Pump-2                  146.552       267.541         3.039         0.216         1.490
  JK-Pump-1                  283.039       524.935         6.264         0.490         3.173
  JK-Pump-2                  534.941      1005.154        11.040         0.825         5.484
  XR-Pump-1                  356.277       590.968        29.063         3.550        17.923
  XR-Pump-2                  347.687       577.202        28.257         3.450        17.421
  XR-Pump-3                  334.941       556.808        27.033         3.297        16.656
  XR-Pump-4                  334.941       556.808        27.033         3.297        16.656
  

  Analysis begun on:  Fri Jul  9 14:33:14 2021
  Analysis ended on:  Fri Jul  9 14:33:17 2021
  Total elapsed time: 00:00:03