
  EPA STORM WATER MANAGEMENT MODEL - VERSION 5.1 (Build 5.3.0.dev0)
  --------------------------------------------------------------

  WARNING 04: minimum elevation drop used for Conduit WS02004404WS02004405
  WARNING 03: negative offset ignored for Link YS02001904YS02001907
  
  *********************************************************
  NOTE: The summary statistics displayed in this report are
  based on results found at every computational time step,  
  not just on results from each reporting time step.
  *********************************************************
  
  ****************
  Analysis Options
  ****************
  Flow Units ............... LPS
  Process Models:
    Rainfall/Runoff ........ YES
    RDII ................... NO
    Snowmelt ............... NO
    Groundwater ............ NO
    Flow Routing ........... YES
    Ponding Allowed ........ NO
    Water Quality .......... YES
  Infiltration Method ...... HORTON
  Flow Routing Method ...... DYNWAVE
  Surcharge Method ......... EXTRAN
  Starting Date ............ 08/28/2015 08:00:00
  Ending Date .............. 08/28/2015 15:50:00
  Antecedent Dry Days ...... 8.0
  Report Time Step ......... 00:01:00
  Wet Time Step ............ 00:01:00
  Dry Time Step ............ 00:01:00
  Routing Time Step ........ 5.00 sec
  Variable Time Step ....... YES
  Maximum Trials ........... 8
  Number of Threads ........ 4
  Head Tolerance ........... 0.001500 m
  
  
  **************************        Volume         Depth
  Runoff Quantity Continuity     hectare-m            mm
  **************************     ---------       -------
  Total Precipitation ......         4.120         9.021
  Evaporation Loss .........         0.000         0.000
  Infiltration Loss ........         0.806         1.764
  Surface Runoff ...........         2.634         5.766
  Final Storage ............         0.681         1.492
  Continuity Error (%) .....        -0.019
  
  
  **************************           COD            SS            TN            TP         NH4-N
  Runoff Quality Continuity             kg            kg            kg            kg            kg
  **************************    ----------    ----------    ----------    ----------    ----------
  Initial Buildup ..........     41378.656     70582.865      1804.177       168.684      1032.807
  Surface Buildup ..........        16.219        26.815         2.248         0.206         1.318
  Wet Deposition ...........         0.000         0.000         0.000         0.000         0.000
  Sweeping Removal .........         0.000         0.000         0.000         0.000         0.000
  Infiltration Loss ........        56.120       102.434         1.078         0.074         0.510
  BMP Removal ..............         0.000         0.000         0.000         0.000         0.000
  Surface Runoff ...........      1907.102      3390.650        37.625         2.496        17.797
  Remaining Buildup ........     39431.082     67115.582      1767.710       166.320      1015.813
  Continuity Error (%) .....         0.001         0.001         0.001         0.000         0.001
  
  
  **************************        Volume        Volume
  Flow Routing Continuity        hectare-m      10^6 ltr
  **************************     ---------     ---------
  Dry Weather Inflow .......         0.616         6.165
  Wet Weather Inflow .......         2.633        26.326
  Groundwater Inflow .......         0.000         0.000
  RDII Inflow ..............         0.000         0.000
  External Inflow ..........         0.102         1.024
  External Outflow .........         2.020        20.196
  Flooding Loss ............         0.988         9.882
  Evaporation Loss .........         0.000         0.000
  Exfiltration Loss ........         0.000         0.000
  Initial Stored Volume ....         0.076         0.761
  Final Stored Volume ......         0.545         5.446
  Continuity Error (%) .....        -3.645
  
  
  **************************           COD            SS            TN            TP         NH4-N
  Quality Routing Continuity            kg            kg            kg            kg            kg
  **************************    ----------    ----------    ----------    ----------    ----------
  Dry Weather Inflow .......      1541.201      2465.922       147.955        18.494        92.472
  Wet Weather Inflow .......      1906.481      3389.603        37.612         2.495        17.791
  Groundwater Inflow .......         0.000         0.000         0.000         0.000         0.000
  RDII Inflow ..............         0.000         0.000         0.000         0.000         0.000
  External Inflow ..........       183.418       293.469        17.608         2.201        11.005
  External Outflow .........      2402.079      4015.342       168.128        20.061       102.549
  Flooding Loss ............       701.820      1242.662        16.658         1.352         8.529
  Exfiltration Loss ........         0.000         0.000         0.000         0.000         0.000
  Mass Reacted .............         0.000         0.000         0.000         0.000         0.000
  Initial Stored Mass ......         0.000         0.000         0.000         0.000         0.000
  Final Stored Mass ........       369.401       619.247        14.627         1.485         8.293
  Continuity Error (%) .....         4.346         4.419         1.852         1.261         1.565
  
  
  *************************
  Highest Continuity Errors
  *************************
  Node HS02004842 (18.12%)
  Node JK-storage (-16.16%)
  Node YS02001884 (11.37%)
  Node YS02001774 (6.35%)
  Node YSB1171 (3.72%)
  
  
  ***************************
  Time-Step Critical Elements
  ***************************
  Link WS02006252WS02006251 (67.45%)
  Link WS02006238WS02006235 (9.10%)
  Link YS02006556YS02006558 (5.21%)
  Link WS02006280WS02006229 (4.74%)
  Link YS02001793JiankangQianchi (3.61%)
  
  
  ********************************
  Highest Flow Instability Indexes
  ********************************
  Link YS02001619YS02001622 (41)
  Link YS02001629YS02163301 (39)
  Link YS02163601YS02164001 (39)
  Link YS02163301YS02001633 (38)
  Link WS02006113WS02006111 (37)
  
  
  *************************
  Routing Time Step Summary
  *************************
  Minimum Time Step           :     0.06 sec
  Average Time Step           :     1.01 sec
  Maximum Time Step           :     5.00 sec
  Percent in Steady State     :    -0.00
  Average Iterations per Step :     4.59
  Percent Not Converging      :    23.74
  
  
  ***************************
  Subcatchment Runoff Summary
  ***************************
  
  ------------------------------------------------------------------------------------------------------------------------------
                            Total      Total      Total      Total     Imperv       Perv      Total       Total     Peak  Runoff
                           Precip      Runon       Evap      Infil     Runoff     Runoff     Runoff      Runoff   Runoff   Coeff
  Subcatchment                 mm         mm         mm         mm         mm         mm         mm    10^6 ltr      LPS
  ------------------------------------------------------------------------------------------------------------------------------
  sub0                       9.02       0.00       0.00       0.59       8.34       0.04       8.38        0.01     1.56   0.929
  sub1                       9.02       0.00       0.00       0.96       7.94       0.03       7.97        0.05    10.73   0.884
  sub2                       9.02       0.00       0.00       3.31       5.60       0.02       5.63        0.05     9.99   0.624
  sub3                       9.02       0.00       0.00       3.32       5.57       0.02       5.59        0.13    22.00   0.619
  sub4                       9.02       0.00       0.00       0.98       7.80       0.02       7.81        0.16    26.54   0.866
  sub5                       9.02       0.00       0.00       0.61       8.30       0.02       8.32        0.09    19.09   0.923
  sub7                       9.02       0.00       0.00       0.78       8.15       0.04       8.18        0.03     6.04   0.907
  sub8                       9.02       0.00       0.00       0.78       8.14       0.03       8.17        0.05    11.14   0.906
  sub9                       9.02       0.00       0.00       0.78       8.14       0.03       8.17        0.04     8.33   0.906
  sub10                      9.02       0.00       0.00       0.69       8.22       0.03       8.24        0.09    18.71   0.914
  sub11                      9.02       0.00       0.00       0.69       8.23       0.03       8.26        0.10    20.67   0.916
  sub12                      9.02       0.00       0.00       1.12       7.80       0.05       7.85        0.07    15.49   0.870
  sub14                      9.02       0.00       0.00       0.78       8.14       0.03       8.17        0.08    16.40   0.905
  sub15                      9.02       0.00       0.00       2.67       6.25       0.04       6.29        0.11    22.55   0.698
  sub16                      9.02       0.00       0.00       2.92       6.00       0.06       6.06        0.06    14.13   0.672
  sub17                      9.02       0.00       0.00       2.83       6.09       0.05       6.15        0.05    11.66   0.681
  sub22                      9.02       0.00       0.00       3.84       5.10       0.04       5.14        0.32    70.03   0.570
  sub23                      9.02       0.00       0.00       3.29       5.64       0.05       5.69        0.27    58.88   0.630
  sub60                      9.02       0.00       0.00       1.08       6.36       0.00       6.36        1.93   172.13   0.705
  sub61                      9.02       0.00       0.00       1.53       6.50       0.00       6.51        2.01   205.32   0.721
  sub62                      9.02       0.00       0.00       0.72       7.06       0.00       7.06        2.17   212.92   0.783
  sub63                      9.02       0.00       0.00       2.61       5.70       0.00       5.71        1.73   188.61   0.633
  sub64                      9.02       0.00       0.00       1.35       6.10       0.00       6.10        1.85   163.96   0.676
  sub65                      9.02       0.00       0.00       1.17       6.20       0.00       6.20        1.91   166.84   0.687
  sub66                      9.02       0.00       0.00       2.61       5.24       0.00       5.25        1.61   148.34   0.582
  sub67                      9.02       0.00       0.00       0.72       7.48       0.01       7.49        2.31   261.90   0.830
  sub68                      9.02       0.00       0.00       1.26       6.85       0.01       6.85        2.11   224.81   0.760
  sub69                      9.02       0.00       0.00       1.35       7.13       0.01       7.14        1.67   209.78   0.791
  sub70                      9.02       7.29       0.00       5.41       9.44       0.13       9.57        2.19   205.23   0.587
  sub71                      9.02       0.00       0.00       0.72       6.86       0.00       6.86        1.62   151.64   0.761
  sub72                      9.02       0.00       0.00       0.63       5.38       0.00       5.38        1.10    80.29   0.597
  1                          9.02       9.32       0.00       1.37      10.29       2.44      12.73        2.99   224.45   0.694
  2                          9.02       0.00       0.00       3.02       2.13       0.97       3.10        1.24   130.93   0.344
  
  
  ****************************
  Subcatchment Washoff Summary
  ****************************
  
  ------------------------------------------------------------------------------------------
                                 COD            SS            TN            TP         NH4-N
  Subcatchment                    kg            kg            kg            kg            kg
  ------------------------------------------------------------------------------------------
  sub0                         1.477         2.783         0.025         0.002         0.012
  sub1                         6.153        11.822         0.115         0.008         0.055
  sub2                         3.570         6.623         0.078         0.005         0.035
  sub3                         8.790        16.141         0.188         0.012         0.086
  sub4                        14.050        27.082         0.283         0.017         0.135
  sub5                        14.210        26.953         0.250         0.019         0.121
  sub7                         3.203         6.262         0.060         0.004         0.029
  sub8                         4.830         9.644         0.097         0.006         0.046
  sub9                         4.109         8.091         0.080         0.005         0.038
  sub10                       11.729        22.539         0.214         0.015         0.103
  sub11                       11.523        22.425         0.215         0.014         0.103
  sub12                        9.597        18.329         0.172         0.013         0.083
  sub14                        8.746        17.061         0.166         0.011         0.080
  sub15                       10.387        19.321         0.202         0.014         0.094
  sub16                        6.541        12.149         0.125         0.009         0.058
  sub17                        6.007        11.057         0.111         0.009         0.052
  sub22                       30.571        55.600         0.588         0.044         0.273
  sub23                       18.601        35.114         0.407         0.026         0.185
  sub60                      124.717       221.559         2.559         0.152         1.223
  sub61                      154.185       272.688         2.921         0.195         1.403
  sub62                      162.469       292.665         3.248         0.199         1.555
  sub63                      113.860       198.397         2.359         0.162         1.085
  sub64                      152.434       260.820         2.851         0.203         1.355
  sub65                      156.376       268.749         2.947         0.206         1.403
  sub66                       89.318       154.225         1.907         0.121         0.885
  sub67                      240.148       428.894         4.318         0.311         2.081
  sub68                      171.088       305.978         3.340         0.219         1.589
  sub69                      155.034       280.796         2.945         0.202         1.402
  sub70                      248.946       451.714         5.077         0.344         2.360
  sub71                      107.814       195.888         2.289         0.128         1.092
  sub72                       80.118       134.940         1.531         0.102         0.734
  1                          159.163       290.829         3.331         0.226         1.528
  2                           21.318        36.022         0.650         0.039         0.274
  ------------------------------------------------------------------------------------------
  System                    2311.082      4123.160        45.646         3.042        21.558
  
  
  ******************
  Node Depth Summary
  ******************
  
  ---------------------------------------------------------------------------------
                                 Average  Maximum  Maximum  Time of Max    Reported
                                   Depth    Depth      HGL   Occurrence   Max Depth
  Node                 Type       Meters   Meters   Meters  days hr:min      Meters
  ---------------------------------------------------------------------------------
  WS02001211           JUNCTION     0.78     0.80     5.64     0  03:15        0.80
  WS02001212           JUNCTION     0.49     0.52     5.58     0  03:15        0.52
  WS02001213           JUNCTION     0.73     0.77     5.54     0  03:14        0.77
  WS02003069           JUNCTION     0.53     0.61     5.19     0  03:14        0.61
  WS02003072           JUNCTION     0.59     0.66     5.03     0  03:14        0.66
  WS02003073           JUNCTION     0.36     0.41     4.47     0  03:15        0.41
  WS02003060           JUNCTION     0.47     0.54     5.47     0  03:13        0.54
  WS02003066           JUNCTION     0.26     0.31     5.87     0  03:10        0.31
  WS02003059           JUNCTION     0.77     0.83     5.51     0  03:14        0.83
  WS02003067           JUNCTION     0.62     0.73     6.05     0  03:10        0.73
  WS02004401           JUNCTION     0.74     0.91     6.91     0  03:06        0.91
  WS02004402           JUNCTION     0.77     0.93     6.89     0  03:07        0.93
  WS02004403           JUNCTION     0.79     0.95     6.88     0  03:07        0.95
  WS02004404           JUNCTION     0.86     1.01     6.86     0  03:07        1.01
  WS02004406           JUNCTION     0.86     0.99     6.82     0  03:07        0.99
  WS02004409           JUNCTION     0.56     0.72     6.49     0  03:09        0.72
  WS02004410           JUNCTION     0.57     0.73     6.45     0  03:10        0.73
  WS02004411           JUNCTION     0.59     0.73     6.41     0  03:09        0.73
  WS02004412           JUNCTION     0.60     0.73     6.37     0  03:10        0.73
  WS02004413           JUNCTION     0.75     0.89     6.36     0  03:10        0.89
  WS02004405           JUNCTION     0.86     1.00     6.85     0  03:07        1.00
  WS02006109           JUNCTION     0.83     1.06     7.68     0  03:02        1.05
  WS02006110           JUNCTION     0.81     0.98     7.56     0  03:02        0.97
  WS02006111           JUNCTION     0.24     0.31     7.02     0  03:03        0.31
  WS02006112           JUNCTION     0.92     1.18     7.07     0  03:12        1.14
  WS02006113           JUNCTION     0.38     0.49     7.38     0  03:03        0.49
  WS02006115           JUNCTION     0.63     0.82     6.96     0  03:07        0.82
  WS02006116           JUNCTION     0.71     0.90     6.94     0  03:07        0.90
  WS02006230           JUNCTION     0.85     1.20     7.94     0  03:01        1.19
  WS02006231           JUNCTION     0.58     0.94     8.07     0  03:01        0.93
  WS02006232           JUNCTION     0.73     1.13     8.17     0  03:01        1.12
  WS02006234           JUNCTION     0.68     1.13     8.28     0  03:03        1.12
  WS02006235           JUNCTION     0.72     1.21     8.37     0  03:02        1.20
  WS02006238           JUNCTION     0.75     1.23     8.38     0  03:02        1.22
  WS02006240           JUNCTION     0.65     1.17     8.46     0  03:02        1.16
  WS02006242           JUNCTION     0.71     1.26     8.53     0  02:59        1.23
  WS02006243           JUNCTION     0.59     1.21     8.63     0  02:59        1.14
  WS02006245           JUNCTION     0.57     1.22     8.71     0  02:59        1.12
  WS02006247           JUNCTION     0.58     1.20     8.70     0  02:59        1.14
  WS02006248           JUNCTION     0.52     1.10     8.69     0  02:59        1.08
  WS02006249           JUNCTION     0.54     1.09     8.69     0  03:00        1.09
  WS02006239           JUNCTION     0.71     1.21     8.42     0  03:02        1.20
  WS02006251           JUNCTION     0.52     1.59     9.26     0  03:00        1.17
  WS02006252           JUNCTION     0.36     1.18     9.42     0  03:00        0.71
  WS02006253           JUNCTION     0.55     1.56     9.20     0  03:00        1.20
  WS02006256           JUNCTION     1.69     2.35     9.28     0  00:00        2.35
  WS02004138           JUNCTION     0.19     0.20     7.45     0  00:00        0.19
  WS02004139           JUNCTION     0.72     0.75     5.66     0  03:16        0.75
  WS02004407           JUNCTION     0.25     0.32     6.63     0  03:07        0.32
  WS02006228           JUNCTION     0.85     1.12     7.77     0  03:02        1.11
  WS02006229           JUNCTION     0.83     1.12     7.81     0  03:01        1.12
  WS02006280           JUNCTION     0.06     0.17     8.44     0  01:41        0.17
  WS02006284           JUNCTION     0.36     0.52     8.92     0  01:41        0.52
  WS02006287           JUNCTION     0.09     0.25     9.20     0  01:40        0.25
  WSF200               JUNCTION     0.25     0.33     5.56     0  03:10        0.33
  HS02004901           JUNCTION     0.12     0.26    10.08     0  01:38        0.26
  HS02004881           JUNCTION     0.01     0.03     9.06     0  01:41        0.03
  HS02004876           JUNCTION     0.04     0.11     9.14     0  01:34        0.11
  HS02004870           JUNCTION     0.01     0.05     9.34     0  01:42        0.05
  HS02004862           JUNCTION     0.02     0.06     9.45     0  01:42        0.06
  HS02004856           JUNCTION     0.08     0.11     9.54     0  01:42        0.11
  HS02004852           JUNCTION     0.01     0.04     9.55     0  01:43        0.04
  HS02004848           JUNCTION     0.01     0.04     9.64     0  01:42        0.04
  HS02004842           JUNCTION     0.33     0.37     9.64     0  01:42        0.37
  HS02004837           JUNCTION     0.03     0.06     9.64     0  01:42        0.06
  HS02004830           JUNCTION     0.04     0.07     9.54     0  01:43        0.07
  HS02004824           JUNCTION     0.02     0.05     9.45     0  01:53        0.05
  HS02004817           JUNCTION     0.44     0.56     9.41     0  01:42        0.56
  HS02004807           JUNCTION     0.12     0.24     9.41     0  01:42        0.24
  HS02004802           JUNCTION     0.16     0.27     9.40     0  01:41        0.27
  HS02004799           JUNCTION     0.11     0.30     9.51     0  01:39        0.30
  HS02004792           JUNCTION     0.03     0.12     9.64     0  01:38        0.12
  HS02004788           JUNCTION     0.02     0.09     9.99     0  01:39        0.09
  HS02004785           JUNCTION     0.04     0.15    10.06     0  01:39        0.15
  HS02004777           JUNCTION     0.14     0.28    10.08     0  01:38        0.28
  HS02004770           JUNCTION     0.11     0.25    10.08     0  01:38        0.25
  HS02004480           JUNCTION     0.07     0.23     9.48     0  01:39        0.23
  HS02004479           JUNCTION     0.11     0.27     9.48     0  01:39        0.27
  HS02004478           JUNCTION     0.06     0.16     9.38     0  01:41        0.16
  YS02001745           JUNCTION     0.72     0.88     8.39     0  02:54        0.87
  YS02001748           JUNCTION     1.13     1.51     8.59     0  02:17        1.31
  YS02001751           JUNCTION     1.32     2.04     8.92     0  02:03        1.51
  YS02001754           JUNCTION     1.58     1.98     8.58     0  02:03        1.80
  YS02001762           JUNCTION     1.78     2.03     8.43     0  02:47        2.01
  YS02001765           JUNCTION     1.73     1.98     8.43     0  02:47        1.96
  YS02001767           JUNCTION     1.69     1.93     8.42     0  02:53        1.91
  YS02001770           JUNCTION     1.69     1.91     8.40     0  02:57        1.89
  YS02001774           JUNCTION     1.76     1.97     8.39     0  02:52        1.96
  YS02001779           JUNCTION     1.50     1.68     8.37     0  02:27        1.68
  YS02001882           JUNCTION     0.39     0.68     7.39     0  02:30        0.66
  YS02001884           JUNCTION     0.48     0.77     7.39     0  02:30        0.77
  YS02001759           JUNCTION     1.81     2.07     8.43     0  02:47        2.05
  YS02001887           JUNCTION     0.56     0.85     7.38     0  02:31        0.84
  YS02001890           JUNCTION     0.59     0.87     7.38     0  02:31        0.87
  YS02001898           JUNCTION     0.36     0.63     7.36     0  02:29        0.62
  YS02001901           JUNCTION     0.48     0.76     7.37     0  02:31        0.75
  YS02001904           JUNCTION     0.46     0.73     7.36     0  02:31        0.73
  YS02001907           JUNCTION     0.79     1.08     7.37     0  02:28        1.07
  YS02001910           JUNCTION     0.58     0.86     7.36     0  02:32        0.85
  YS02001915           JUNCTION     0.37     0.64     7.36     0  02:29        0.64
  YS02001918           JUNCTION     0.14     0.29     7.36     0  02:30        0.29
  YS02001619           JUNCTION     1.28     1.61     8.54     0  02:12        1.46
  YS02001629           JUNCTION     1.64     1.85     8.40     0  02:12        1.83
  YS02001641           JUNCTION     1.74     1.94     8.37     0  02:26        1.93
  YS02001644           JUNCTION     1.75     1.92     8.35     0  02:26        1.92
  YS02001652           JUNCTION     1.59     2.16     8.76     0  03:15        1.99
  YS02001655           JUNCTION     1.35     2.20     9.05     0  03:15        1.89
  YS02001920           JUNCTION     0.24     0.37     7.38     0  02:30        0.36
  YS02001923           JUNCTION     0.10     0.13     7.39     0  02:59        0.13
  YS02001926           JUNCTION     0.19     0.25     7.69     0  02:59        0.25
  YS02001929           JUNCTION     0.10     0.13     7.83     0  02:59        0.13
  YS02001658           JUNCTION     1.07     2.30     9.44     0  02:13        1.74
  YS02001661           JUNCTION     0.83     2.46     9.86     0  02:41        1.60
  YS02001664           JUNCTION     0.35     0.58     8.50     0  03:15        0.57
  YS02001622           JUNCTION     1.30     1.62     8.52     0  02:12        1.48
  YS02001633           JUNCTION     1.73     1.95     8.40     0  02:26        1.93
  YS02001649           JUNCTION     1.79     2.05     8.44     0  02:33        2.05
  YS02001757           JUNCTION     1.91     2.17     8.43     0  02:47        2.15
  YS02001895           JUNCTION     0.35     0.62     7.37     0  02:32        0.62
  YS02001625           JUNCTION     1.59     1.78     8.38     0  02:11        1.78
  YS02163301           JUNCTION     1.67     1.89     8.40     0  02:26        1.86
  YS02163601           JUNCTION     1.79     1.99     8.39     0  02:26        1.97
  YS02164001           JUNCTION     1.72     1.93     8.39     0  02:26        1.91
  YS02001647           JUNCTION     1.57     1.80     8.41     0  02:34        1.79
  YSB1154              JUNCTION     0.25     0.42     9.48     0  01:39        0.42
  YSB6556              JUNCTION     0.14     0.31     9.48     0  01:39        0.31
  YSB1174              JUNCTION     0.20     0.37     9.48     0  01:39        0.37
  YSB1171              JUNCTION     0.40     0.57     9.48     0  01:39        0.57
  YS02006553           JUNCTION     0.79     1.08     7.37     0  02:28        1.07
  YS02006561           JUNCTION     0.20     0.48     7.14     0  02:28        0.44
  YS02006556           JUNCTION     0.76     1.06     7.37     0  01:58        1.03
  YS02006558           JUNCTION     0.81     1.09     7.36     0  02:28        1.08
  YS02001783           JUNCTION     0.37     1.26     7.40     0  02:28        0.98
  YS02001784           JUNCTION     0.40     1.27     7.33     0  02:28        0.99
  YS02001786           JUNCTION     0.35     1.24     7.27     0  02:28        0.99
  YS02001788           JUNCTION     0.29     1.18     7.15     0  02:28        0.88
  YS02001790           JUNCTION     0.38     1.79     7.44     0  04:52        1.13
  YS02001791           JUNCTION     0.33     1.54     7.01     0  04:52        1.21
  YS02001793           JUNCTION     0.46     1.86     6.69     0  04:52        1.79
  WSC                  OUTFALL      0.36     0.41     1.08     0  03:15        0.41
  JK-storage           STORAGE      2.40     5.80     6.60     0  01:50        5.80
  CC-storage           STORAGE      1.16     1.39     8.39     0  02:52        1.39
  XR-storage           STORAGE      5.48     7.72     5.72     0  03:12        7.72
  
  
  *******************
  Node Inflow Summary
  *******************
  
  -------------------------------------------------------------------------------------------------
                                  Maximum  Maximum                  Lateral       Total        Flow
                                  Lateral    Total  Time of Max      Inflow      Inflow     Balance
                                   Inflow   Inflow   Occurrence      Volume      Volume       Error
  Node                 Type           LPS      LPS  days hr:min    10^6 ltr    10^6 ltr     Percent
  -------------------------------------------------------------------------------------------------
  WS02001211           JUNCTION      7.35   389.98     0  03:27       0.207        10.3       0.397
  WS02001212           JUNCTION      0.00   392.46     0  03:27           0        10.3       0.230
  WS02001213           JUNCTION      0.00   394.69     0  03:26           0        10.2       0.295
  WS02003069           JUNCTION      0.32  1007.17     0  03:13     0.00902        20.3       0.185
  WS02003072           JUNCTION      0.00  1007.12     0  03:14           0        20.2       0.218
  WS02003073           JUNCTION      1.82  1008.92     0  03:14      0.0514        20.2       0.252
  WS02003060           JUNCTION     16.53  1006.96     0  03:13       0.466        20.3       0.173
  WS02003066           JUNCTION      0.00   606.75     0  03:10           0        9.67       0.053
  WS02003059           JUNCTION      0.00   398.12     0  03:26           0        10.2       0.400
  WS02003067           JUNCTION      0.00   606.68     0  03:10           0        9.68       0.106
  WS02004401           JUNCTION      0.00   609.92     0  03:05           0        9.94       0.239
  WS02004402           JUNCTION      0.00   609.56     0  03:06           0        9.92       0.223
  WS02004403           JUNCTION      0.00   608.94     0  03:06           0        9.89       0.201
  WS02004404           JUNCTION      0.16   609.00     0  03:07     0.00457        9.88       0.148
  WS02004406           JUNCTION      0.00   609.05     0  03:07           0        9.84       0.361
  WS02004409           JUNCTION      0.00   608.73     0  03:07           0         9.8       0.196
  WS02004410           JUNCTION      0.00   607.53     0  03:09           0        9.78       0.219
  WS02004411           JUNCTION      0.00   607.14     0  03:09           0        9.76       0.221
  WS02004412           JUNCTION      0.00   606.85     0  03:09           0        9.74       0.235
  WS02004413           JUNCTION      0.00   606.73     0  03:10           0        9.72       0.344
  WS02004405           JUNCTION      0.04   609.06     0  03:07     0.00107        9.87       0.224
  WS02006109           JUNCTION      1.23   613.40     0  03:01      0.0347          10       0.218
  WS02006110           JUNCTION      0.00   613.48     0  03:01           0          10       0.213
  WS02006111           JUNCTION      0.00   643.78     0  03:02           0        9.97       0.049
  WS02006112           JUNCTION     11.66   623.27     0  03:04      0.0527          10       0.295
  WS02006113           JUNCTION      0.00   613.77     0  03:02           0        9.98       0.115
  WS02006115           JUNCTION      0.00   626.96     0  03:02           0        9.99       0.235
  WS02006116           JUNCTION      0.00   613.60     0  03:04           0        9.96       0.224
  WS02006230           JUNCTION     10.28   532.53     0  05:24        0.29        8.43       0.182
  WS02006231           JUNCTION      0.00   522.03     0  05:31           0        8.15       0.146
  WS02006232           JUNCTION      0.00   522.13     0  05:28           0        8.16       0.221
  WS02006234           JUNCTION      0.00   522.50     0  05:24           0        8.17       0.122
  WS02006235           JUNCTION      0.00   523.17     0  05:10           0        8.23       0.138
  WS02006238           JUNCTION      0.00   400.61     0  06:19           0        4.95       0.163
  WS02006240           JUNCTION      0.00   400.64     0  06:19           0        4.93       0.285
  WS02006242           JUNCTION      0.00   400.73     0  06:19           0        4.93       0.339
  WS02006243           JUNCTION      0.00   400.56     0  06:19           0        4.92       0.123
  WS02006245           JUNCTION      0.00   400.88     0  06:19           0        4.93       0.179
  WS02006247           JUNCTION      0.00   400.74     0  06:19           0        4.93       0.164
  WS02006248           JUNCTION      0.00   400.74     0  06:19           0        4.94       0.085
  WS02006249           JUNCTION      0.00   447.98     0  03:00           0        5.15       0.210
  WS02006239           JUNCTION      0.00   400.56     0  06:19           0        4.94       0.208
  WS02006251           JUNCTION      0.08   439.50     0  03:00     0.00217         5.2       0.167
  WS02006252           JUNCTION      0.00   400.00     0  03:00           0        4.86       0.010
  WS02006253           JUNCTION      1.56   158.14     0  02:59     0.00679       0.346       1.305
  WS02006256           JUNCTION      0.00   983.00     0  00:00           0        8.08      -0.023
  WS02004138           JUNCTION      0.00   380.00     0  00:00           0        10.1       0.062
  WS02004139           JUNCTION      0.32   396.51     0  00:00     0.00905        10.1       0.450
  WS02004407           JUNCTION      0.00   608.85     0  03:07           0        9.81       0.087
  WS02006228           JUNCTION      0.00   612.30     0  03:01           0          10       0.169
  WS02006229           JUNCTION      0.00   611.56     0  03:02           0          10       0.143
  WS02006280           JUNCTION      0.00   293.89     0  01:41           0        1.61       0.004
  WS02006284           JUNCTION      0.10   293.90     0  01:41      0.0027        1.61       0.039
  WS02006287           JUNCTION      0.00   293.83     0  01:41           0        1.61       0.045
  WSF200               JUNCTION      0.00   606.77     0  03:10           0        9.67       0.051
  HS02004901           JUNCTION     14.13    14.13     0  01:35      0.0634      0.0638       2.833
  HS02004881           JUNCTION      6.04    59.47     0  01:40      0.0276       0.295       0.088
  HS02004876           JUNCTION     10.73    53.52     0  01:41       0.053       0.268       0.199
  HS02004870           JUNCTION     11.14    42.89     0  01:41      0.0522       0.215       0.048
  HS02004862           JUNCTION     10.19    32.12     0  01:42      0.0581       0.163       0.104
  HS02004856           JUNCTION      8.33    21.96     0  01:41      0.0393       0.106       1.370
  HS02004852           JUNCTION      0.00    13.91     0  01:42           0       0.067       0.077
  HS02004848           JUNCTION     22.00    22.00     0  01:52       0.126       0.126       0.033
  HS02004842           JUNCTION      0.00     8.57     0  01:56           0      0.0718      22.129
  HS02004837           JUNCTION     25.06    32.52     0  01:42        0.27       0.329       0.247
  HS02004830           JUNCTION      0.15    32.65     0  01:42     0.00423       0.319       0.388
  HS02004824           JUNCTION     26.59    58.69     0  01:53       0.164       0.482       0.111
  HS02004817           JUNCTION      0.60    59.28     0  01:53      0.0169       0.499       3.457
  HS02004807           JUNCTION     20.67    78.27     0  01:44       0.096       0.579       0.753
  HS02004802           JUNCTION      0.00    78.60     0  01:45           0       0.578       0.688
  HS02004799           JUNCTION     16.40   183.02     0  01:38      0.0777       0.894       0.333
  HS02004792           JUNCTION     70.31   166.68     0  01:38       0.333       0.817       0.049
  HS02004788           JUNCTION     24.22    96.80     0  01:38       0.155       0.485       0.080
  HS02004785           JUNCTION      0.15    72.64     0  01:38     0.00423       0.331       0.147
  HS02004777           JUNCTION      0.03    72.64     0  01:37    0.000846       0.331       1.592
  HS02004770           JUNCTION     58.88    72.83     0  01:36       0.271       0.333       0.930
  HS02004480           JUNCTION      0.00   217.12     0  01:39           0        1.05       0.084
  HS02004479           JUNCTION      0.00    34.23     0  01:40           0       0.171       0.429
  HS02004478           JUNCTION      0.00   293.83     0  01:41           0        1.61       0.023
  YS02001745           JUNCTION    172.13   343.29     0  02:15        1.93        1.94       0.498
  YS02001748           JUNCTION      0.04   506.66     0  02:16     0.00127        1.93       1.144
  YS02001751           JUNCTION      0.01   300.84     0  02:01     0.00031         1.9       1.234
  YS02001754           JUNCTION      0.26   211.86     0  02:15     0.00733        1.88       1.312
  YS02001762           JUNCTION      0.00   237.55     0  02:10           0        1.82       1.170
  YS02001765           JUNCTION      0.00   233.43     0  02:10           0        1.82       1.349
  YS02001767           JUNCTION      0.54   230.01     0  02:10      0.0151        1.84       1.973
  YS02001770           JUNCTION    213.08   267.20     0  02:57        2.17        2.21       1.434
  YS02001774           JUNCTION      0.00   267.64     0  02:57           0       0.396       6.785
  YS02001779           JUNCTION      0.01   267.76     0  02:57    0.000141       0.362       4.424
  YS02001882           JUNCTION      0.00    13.58     0  02:00           0      0.0156      14.626
  YS02001884           JUNCTION      0.00    24.17     0  02:30           0      0.0486      12.832
  YS02001759           JUNCTION    205.36   445.78     0  02:10        2.01        3.76       0.611
  YS02001887           JUNCTION    262.35   273.87     0  02:30        2.32        2.35       0.333
  YS02001890           JUNCTION      0.00   269.47     0  02:09           0        2.31       0.372
  YS02001898           JUNCTION      0.00   274.75     0  02:05           0        2.29       0.107
  YS02001901           JUNCTION      0.00   277.75     0  02:03           0        2.29       0.276
  YS02001904           JUNCTION      0.00   277.15     0  02:04           0        2.29       0.252
  YS02001907           JUNCTION      0.00   511.40     0  02:38           0        5.07       0.461
  YS02001910           JUNCTION      0.00   252.60     0  02:38           0        2.79       0.398
  YS02001915           JUNCTION    151.66   245.72     0  02:30        1.62        2.79       0.190
  YS02001918           JUNCTION      0.00    93.31     0  02:31           0        1.17       0.139
  YS02001619           JUNCTION    148.34   148.34     0  02:29        1.61        1.61       0.756
  YS02001629           JUNCTION      0.00   169.48     0  02:02           0        1.53       1.901
  YS02001641           JUNCTION      0.00   352.54     0  02:16           0        3.34       0.634
  YS02001644           JUNCTION    164.00   906.29     0  02:54        1.85        6.39       0.405
  YS02001652           JUNCTION      0.00   271.47     0  02:09           0        1.69       1.371
  YS02001655           JUNCTION      0.15   313.54     0  02:10     0.00434        1.71       1.461
  YS02001920           JUNCTION      2.87    83.24     0  02:59      0.0809        1.18       0.224
  YS02001923           JUNCTION      0.04    80.37     0  02:59     0.00106         1.1       0.041
  YS02001926           JUNCTION      0.05    80.34     0  02:59     0.00147         1.1       0.277
  YS02001929           JUNCTION     80.29    80.29     0  02:59         1.1         1.1       0.039
  YS02001658           JUNCTION      0.00   628.43     0  02:10           0        1.75       1.113
  YS02001661           JUNCTION      0.00   531.02     0  02:33           0        2.26      -0.311
  YS02001664           JUNCTION    188.61   346.12     0  03:15        1.73        2.24       0.221
  YS02001622           JUNCTION      0.00   160.13     0  02:14           0         1.6       2.023
  YS02001633           JUNCTION    167.04   346.61     0  02:13        1.91         3.4       0.950
  YS02001649           JUNCTION      0.00   704.70     0  02:10           0        4.61       0.809
  YS02001757           JUNCTION      0.00  1253.47     0  02:16           0        8.87       1.046
  YS02001895           JUNCTION      0.00   271.97     0  02:02           0         2.3       0.206
  YS02001625           JUNCTION      0.00   169.46     0  02:02           0        1.56       2.547
  YS02163301           JUNCTION      0.00   185.21     0  02:13           0        1.52       1.594
  YS02163601           JUNCTION      0.11   347.26     0  02:13      0.0031        3.36       0.902
  YS02164001           JUNCTION      0.00   348.06     0  02:16           0        3.34       0.605
  YS02001647           JUNCTION      0.00   516.84     0  02:16           0        3.66       0.771
  YSB1154              JUNCTION     19.09    19.09     0  01:39      0.0942      0.0948       1.543
  YSB6556              JUNCTION      0.00    19.20     0  01:39           0      0.0956       1.328
  YSB1174              JUNCTION     15.49    15.49     0  01:35      0.0686       0.069       1.890
  YSB1171              JUNCTION      0.00    34.42     0  01:38           0        0.17       3.866
  YS02006553           JUNCTION      0.00   511.43     0  02:38           0        5.06       0.293
  YS02006561           JUNCTION      0.00   734.54     0  02:39           0        7.13       0.013
  YS02006556           JUNCTION      0.00   512.05     0  02:38           0        5.07       0.211
  YS02006558           JUNCTION    225.69   740.36     0  02:12        2.13        7.17       0.060
  YS02001783           JUNCTION      0.00   741.60     0  02:27           0        7.13       0.024
  YS02001784           JUNCTION      1.06   731.72     0  02:38      0.0299        7.16       0.040
  YS02001786           JUNCTION      0.06   732.89     0  02:38     0.00159        7.16       0.039
  YS02001788           JUNCTION      0.07   767.29     0  02:40       0.002        7.16       0.025
  YS02001790           JUNCTION      0.15   813.78     0  02:39     0.00437        7.16       0.016
  YS02001791           JUNCTION      0.00   846.17     0  02:40           0        7.16       0.022
  YS02001793           JUNCTION      0.00   884.78     0  02:40           0        7.21      -0.050
  WSC                  OUTFALL       0.00  1008.87     0  03:15           0        20.2       0.000
  JK-storage           STORAGE       0.00   886.97     0  02:24           0        7.36     -13.912
  CC-storage           STORAGE       0.00  1256.91     0  02:16           0        8.24       0.740
  XR-storage           STORAGE     525.74   525.74     0  02:57        9.87        10.5      -0.001
  
  
  **********************
  Node Surcharge Summary
  **********************
  
  Surcharging occurs when water rises above the top of the highest conduit.
  ---------------------------------------------------------------------
                                               Max. Height   Min. Depth
                                   Hours       Above Crown    Below Rim
  Node                 Type      Surcharged         Meters       Meters
  ---------------------------------------------------------------------
  WS02004404           JUNCTION        0.22          0.013        2.767
  WS02004405           JUNCTION        0.07          0.002        2.798
  WS02006109           JUNCTION        4.28          0.238        1.582
  WS02006110           JUNCTION        1.31          0.068        1.782
  WS02006112           JUNCTION        1.92          0.183        1.497
  WS02006230           JUNCTION        0.93          0.117        1.453
  WS02006231           JUNCTION        1.24          0.232        1.298
  WS02006232           JUNCTION        4.27          0.428        1.052
  WS02006234           JUNCTION        2.33          0.405        0.835
  WS02006235           JUNCTION        3.05          0.498        0.792
  WS02006238           JUNCTION        3.40          0.515        0.915
  WS02006240           JUNCTION        2.35          0.457        0.933
  WS02006242           JUNCTION        2.77          0.532        0.288
  WS02006243           JUNCTION        1.97          0.498        0.272
  WS02006245           JUNCTION        1.75          0.512        0.338
  WS02006247           JUNCTION        1.80          0.491        0.269
  WS02006248           JUNCTION        1.52          0.380        0.000
  WS02006249           JUNCTION        1.61          0.390        0.000
  WS02006239           JUNCTION        2.62          0.472        0.818
  WS02006251           JUNCTION        0.80          0.557        0.623
  WS02006252           JUNCTION        2.49          0.776        0.324
  WS02006253           JUNCTION        0.82          0.521        1.959
  WS02006256           JUNCTION        6.81          2.050        0.000
  WS02006228           JUNCTION        4.18          0.287        1.913
  YS02001748           JUNCTION        5.48          0.429        0.761
  YS02001751           JUNCTION        5.74          1.041        0.159
  YS02001754           JUNCTION        5.95          0.926        0.224
  YS02001762           JUNCTION        6.15          1.031        0.119
  YS02001765           JUNCTION        6.12          0.977        0.123
  YS02001767           JUNCTION        6.11          0.930        0.100
  YS02001770           JUNCTION        6.10          0.879        0.041
  YS02001774           JUNCTION        6.13          0.971        0.079
  YS02001779           JUNCTION        5.95          0.680        0.000
  YS02001759           JUNCTION        6.16          1.067        0.143
  YS02001907           JUNCTION        1.28          0.067        0.883
  YS02001619           JUNCTION        5.71          0.610        0.000
  YS02001629           JUNCTION        5.73          0.470        0.000
  YS02001641           JUNCTION        6.13          0.938        0.162
  YS02001644           JUNCTION        6.13          0.920        0.000
  YS02001652           JUNCTION        5.98          1.130        0.000
  YS02001655           JUNCTION        5.77          1.200        0.000
  YS02001658           JUNCTION        5.51          1.298        0.002
  YS02001661           JUNCTION        0.18          1.390        0.000
  YS02001622           JUNCTION        5.78          0.620        0.000
  YS02001633           JUNCTION        6.12          0.930        0.130
  YS02001649           JUNCTION        6.15          1.050        0.000
  YS02001757           JUNCTION        6.20          1.168        0.042
  YS02001625           JUNCTION        6.05          0.780        0.000
  YS02163301           JUNCTION        6.10          0.888        0.142
  YS02163601           JUNCTION        6.14          0.995        0.085
  YS02164001           JUNCTION        6.12          0.928        0.172
  YS02001647           JUNCTION        6.01          0.802        0.098
  YS02006553           JUNCTION        1.37          0.083        1.107
  YS02006556           JUNCTION        0.01          0.023        1.327
  YS02001783           JUNCTION        0.24          0.464        1.136
  YS02001784           JUNCTION        0.27          0.466        1.024
  YS02001786           JUNCTION        0.23          0.441        0.989
  YS02001788           JUNCTION        0.20          0.375        1.105
  YS02001790           JUNCTION        0.80          0.990        0.167
  YS02001791           JUNCTION        0.93          0.738        1.182
  YS02001793           JUNCTION        1.31          0.859        1.741
  
  
  *********************
  Node Flooding Summary
  *********************
  
  Flooding refers to all water that overflows a node, whether it ponds or not.
  --------------------------------------------------------------------------
                                                             Total   Maximum
                                 Maximum   Time of Max       Flood    Ponded
                        Hours       Rate    Occurrence      Volume     Depth
  Node                 Flooded       LPS   days hr:min    10^6 ltr    Meters
  --------------------------------------------------------------------------
  WS02006248              0.01     14.44      0  02:59       0.000     0.000
  WS02006249              0.77    160.10      0  03:00       0.200     0.000
  WS02006256              3.28    978.40      0  00:00       4.758     0.000
  YS02001779              1.88    267.68      0  02:57       0.341     0.000
  YS02001619              0.01     11.06      0  02:12       0.000     0.000
  YS02001629              0.01     19.66      0  02:12       0.000     0.000
  YS02001644              2.81    906.25      0  02:54       3.916     0.000
  YS02001652              0.01      5.34      0  03:15       0.000     0.000
  YS02001655              0.01     15.20      0  03:15       0.000     0.000
  YS02001661              0.01    126.92      0  02:41       0.000     0.000
  YS02001622              0.01     27.61      0  02:12       0.000     0.000
  YS02001649              0.04     36.23      0  02:40       0.002     0.000
  YS02001625              0.05     17.53      0  02:12       0.000     0.000
  JK-storage              0.43    491.02      0  03:32       0.425     0.000
  XR-storage              1.29    115.83      0  03:12       0.237     0.000
  
  
  **********************
  Storage Volume Summary
  **********************
  
  --------------------------------------------------------------------------------------------------
                         Average     Avg  Evap Exfil       Maximum     Max    Time of Max    Maximum
                          Volume    Pcnt  Pcnt  Pcnt        Volume    Pcnt     Occurrence    Outflow
  Storage Unit           1000 m3    Full  Loss  Loss       1000 m3    Full    days hr:min        LPS
  --------------------------------------------------------------------------------------------------
  JK-storage               0.120      41     0     0         0.291     100       0  01:50     983.00
  CC-storage               3.244      21     0     0         3.865      25       0  02:52     400.00
  XR-storage               0.658      71     0     0         0.926     100       0  03:12     380.00
  
  
  ***********************
  Outfall Loading Summary
  ***********************
  
  ---------------------------------------------------------------------------------------------------------------------------------
                         Flow       Avg       Max       Total         Total         Total         Total         Total         Total
                         Freq      Flow      Flow      Volume           COD            SS            TN            TP         NH4-N
  Outfall Node           Pcnt       LPS       LPS    10^6 ltr            kg            kg            kg            kg            kg
  ---------------------------------------------------------------------------------------------------------------------------------
  WSC                   99.99    801.26   1008.87      20.196      2402.196      4015.532       168.137        20.062       102.554
  ---------------------------------------------------------------------------------------------------------------------------------
  System                99.99    801.26   1008.87      20.196      2402.196      4015.532       168.137        20.062       102.554
  
  
  ********************
  Link Flow Summary
  ********************
  
  -----------------------------------------------------------------------------
                                 Maximum  Time of Max   Maximum    Max/    Max/
                                  |Flow|   Occurrence   |Veloc|    Full    Full
  Link                 Type          LPS  days hr:min     m/sec    Flow   Depth
  -----------------------------------------------------------------------------
  WS02003066WSF200     CONDUIT    606.77     0  03:10      2.81    0.10    0.25
  WS02006287WS02006284 CONDUIT    293.81     0  01:41      1.83    0.14    0.26
  WS02006284WS02006280 CONDUIT    293.89     0  01:41      2.07    0.12    0.24
  WS02006280WS02006229 CONDUIT    293.89     0  01:41      3.33    0.06    0.17
  WS02006229WS02006228 CONDUIT    612.30     0  03:01      1.22    2.03    1.00
  WS02006256WS02006235 CONDUIT    288.60     0  00:00      4.23    3.05    1.00
  WS02006253WS02006251 CONDUIT    137.84     0  02:59      0.56    0.41    1.00
  WS02006252WS02006251 CONDUIT    407.60     0  03:00      3.24    1.50    1.00
  WS02006251WS02006249 CONDUIT    447.98     0  03:00      1.16    1.29    1.00
  WS02006249WS02006248 CONDUIT    400.74     0  06:19      1.14    2.20    1.00
  WS02006248WS02006247 CONDUIT    400.74     0  06:19      1.10    0.87    1.00
  WS02006247WS02006245 CONDUIT    400.88     0  06:19      1.08    3.18    1.00
  WS02006245WS02006243 CONDUIT    400.56     0  06:19      1.09    1.18    1.00
  WS02006243WS02006242 CONDUIT    400.73     0  06:19      1.04    0.86    1.00
  WS02006242WS02006240 CONDUIT    400.64     0  06:19      1.04    1.59    1.00
  WS02006240WS02006239 CONDUIT    400.56     0  06:19      1.04    1.26    1.00
  WS02006239WS02006238 CONDUIT    400.61     0  06:19      1.04    1.28    1.00
  WS02006238WS02006235 CONDUIT    401.41     0  06:19      1.46    0.90    1.00
  WS02006235WS02006234 CONDUIT    522.50     0  05:24      1.36    5.51    1.00
  WS02006234WS02006232 CONDUIT    522.13     0  05:28      1.39    1.06    1.00
  WS02006232WS02006231 CONDUIT    522.03     0  05:31      1.36    1.09    1.00
  WS02006231WS02006230 CONDUIT    522.25     0  05:24      1.39    7.92    1.00
  WS02006230WS02006229 CONDUIT    532.09     0  05:28      1.38   11.84    1.00
  WS02006228WS02006109 CONDUIT    612.17     0  03:01      1.22    2.67    1.00
  WS02006116WS02004401 CONDUIT    609.92     0  03:05      0.82    0.84    0.90
  WS02006115WS02006116 CONDUIT    613.60     0  03:04      0.92    0.79    0.83
  WS02006113WS02006111 CONDUIT    643.78     0  03:02      2.58    0.77    0.50
  WS02006112WS02006115 CONDUIT    626.96     0  03:02      0.86    0.37    0.90
  WS02006111WS02006112 CONDUIT    620.89     0  03:04      1.69    0.30    0.69
  WS02006110WS02006113 CONDUIT    613.77     0  03:02      1.42    0.56    0.81
  WS02006109WS02006110 CONDUIT    613.48     0  03:01      1.22    1.18    1.00
  WS02004411WS02004412 CONDUIT    606.85     0  03:09      0.98    0.86    0.73
  WS02004401WS02004402 CONDUIT    609.56     0  03:06      0.80    0.73    0.92
  WS02004413WS02003067 CONDUIT    606.68     0  03:10      1.19    0.26    0.62
  WS02004412WS02004413 CONDUIT    606.73     0  03:10      0.89    0.41    0.81
  WS02004410WS02004411 CONDUIT    607.14     0  03:09      0.99    0.83    0.73
  WS02004409WS02004410 CONDUIT    607.53     0  03:09      1.01    0.79    0.72
  WS02004407WS02004409 CONDUIT    608.73     0  03:07      1.51    0.22    0.52
  WS02004406WS02004407 CONDUIT    608.85     0  03:07      1.12    0.27    0.65
  WS02004405WS02004406 CONDUIT    609.05     0  03:07      0.78    1.20    1.00
  WS02004404WS02004405 CONDUIT    609.02     0  03:07      0.78    5.97    1.00
  WS02004403WS02004404 CONDUIT    608.84     0  03:07      0.78    0.44    0.97
  WS02004402WS02004403 CONDUIT    608.94     0  03:06      0.79    0.87    0.94
  WS02004139WS02001211 CONDUIT    382.64     0  03:27      0.90    0.48    0.60
  WS02004138WS02004139 CONDUIT    396.19     0  00:00      3.65    0.08    0.44
  WS02003067WS02003066 CONDUIT    606.75     0  03:10      1.29    0.19    0.43
  WS02001213WS02003059 CONDUIT    398.12     0  03:26      0.88    0.66    0.79
  WS02001212WS02001213 CONDUIT    394.69     0  03:26      1.32    0.61    0.49
  WS02001211WS02001212 CONDUIT    392.46     0  03:27      0.78    0.30    0.66
  WS02003072WS02003073 CONDUIT   1007.09     0  03:14      1.77    2.18    0.50
  WS02003069WS02003072 CONDUIT   1007.12     0  03:14      1.66    0.48    0.53
  WS02003060WS02003069 CONDUIT   1006.85     0  03:13      1.90    0.39    0.48
  WS02003059WS02003060 CONDUIT    402.29     0  03:25      0.95    0.26    0.68
  HS02004901HS02004770 CONDUIT     13.98     0  01:36      0.07    0.05    0.36
  HS02004876HS02004881 CONDUIT     53.62     0  01:41      0.78    0.57    0.10
  HS02004870HS02004876 CONDUIT     42.88     0  01:42      0.54    0.03    0.11
  HS02004842HS02004848 CONDUIT      8.57     0  01:56      0.04    0.00    0.29
  HS02004837HS02004842 CONDUIT      8.74     0  01:59      0.42    0.01    0.30
  HS02004830HS02004837 CONDUIT     32.50     0  01:42      0.50    0.03    0.09
  HS02004824HS02004830 CONDUIT     32.65     0  01:43      0.54    0.04    0.09
  HS02004817HS02004824 CONDUIT     58.68     0  01:53      0.19    0.03    0.44
  HS02004770HS02004777 CONDUIT     72.61     0  01:37      0.28    0.13    0.37
  HS02004799HS02004480 CONDUIT    182.94     0  01:38      0.70    0.23    0.37
  HS02004792HS02004799 CONDUIT    166.64     0  01:38      0.80    0.10    0.30
  HS02004788HS02004792 CONDUIT     96.77     0  01:39      0.94    0.06    0.15
  HS02004785HS02004788 CONDUIT     72.61     0  01:39      0.60    0.55    0.17
  HS02004777HS02004785 CONDUIT     72.49     0  01:38      0.34    0.09    0.31
  HS02004480HS02004478 CONDUIT    216.95     0  01:39      1.11    0.91    0.28
  HS02004479HS02004480 CONDUIT     34.42     0  01:41      0.37    0.03    0.36
  HS02004862HS02004870 CONDUIT     32.10     0  01:43      0.56    0.03    0.08
  HS02004848HS02004852 CONDUIT     13.91     0  01:42      0.38    0.02    0.05
  HS02004856HS02004862 CONDUIT     21.94     0  01:42      0.41    0.02    0.08
  HS02004852HS02004856 CONDUIT     13.90     0  01:43      0.18    0.02    0.11
  HS02004802HS02004478 CONDUIT     78.95     0  01:46      0.38    0.07    0.30
  HS02004478WS02006287 CONDUIT    293.83     0  01:41      1.53    0.08    0.21
  HS02004817HS02004807 CONDUIT     59.61     0  01:54      0.15    0.04    0.57
  HS02004807HS02004802 CONDUIT     78.60     0  01:45      0.32    0.15    0.35
  YS02001759YS02001757 CONDUIT    448.56     0  02:10      0.57    0.32    1.00
  YS02001762YS02001759 CONDUIT    241.41     0  02:10      0.31    0.28    1.00
  YS02001765YS02001762 CONDUIT    237.55     0  02:10      0.30    0.22    1.00
  YS02001770YS02001767 CONDUIT    229.48     0  02:10      0.42    0.91    1.00
  YS02001774YS02001770 CONDUIT    267.64     0  02:57      0.35    0.17    1.00
  YS02001779YS02001774 CONDUIT    267.75     0  02:57      0.34    0.13    1.00
  YS02001649YS02001757 CONDUIT    709.69     0  02:10      0.90    0.43    1.00
  YS02001767YS02001765 CONDUIT    233.43     0  02:10      0.40    0.29    1.00
  YS02006561YS02001783 CONDUIT    741.60     0  02:27      2.15    0.38    0.80
  YS02001783YS02001784 CONDUIT    730.66     0  02:38      1.61    1.01    1.00
  YS02001784YS02001785 CONDUIT    732.83     0  02:38      1.74    1.71    1.00
  YS02001788YS02001790 CONDUIT    813.62     0  02:39      2.28    0.60    1.00
  YS02001790YS02001791 CONDUIT    846.17     0  02:40      2.78    0.92    1.00
  YS02001791YS02001793 CONDUIT    884.78     0  02:40      5.63    0.38    1.00
  YS02001910YS02001907 CONDUIT    252.97     0  02:38      0.49    0.14    0.93
  YS02001786YS02001788 CONDUIT    767.22     0  02:40      2.19    1.48    1.00
  YS02001915YS02001910 CONDUIT    252.60     0  02:38      0.65    0.13    0.74
  YS02001918YS02001915 CONDUIT     95.81     0  03:01      0.44    0.05    0.46
  YS02001923YS02001920 CONDUIT     80.37     0  02:59      0.63    0.04    0.25
  YS02001926YS02001923 CONDUIT     80.33     0  02:59      0.71    0.11    0.20
  YS02001929YS02001926 CONDUIT     80.29     0  02:59      0.77    0.04    0.19
  YS02001920YS02001918 CONDUIT     93.31     0  02:31      0.62    0.09    0.33
  YS02001629YS02163301 CONDUIT    185.21     0  02:13      0.24    0.23    1.00
  YS02001619YS02001622 CONDUIT    160.13     0  02:14      0.70    0.24    1.00
  YS02001622YS02001625 CONDUIT    169.46     0  02:02      0.46    0.09    1.00
  YS02001625YS02001629 CONDUIT    169.48     0  02:02      0.28    0.08    1.00
  YS02163301YS02001633 CONDUIT    186.02     0  02:13      0.24    0.17    1.00
  YS02163601YS02164001 CONDUIT    348.06     0  02:16      0.44    0.31    1.00
  YS02164001YS02001641 CONDUIT    352.54     0  02:16      0.45    0.48    1.00
  YS02001641YS02001644 CONDUIT    355.70     0  02:16      0.45    1.15    1.00
  YS02001647YS02001649 CONDUIT    518.98     0  02:16      0.66    0.27    1.00
  YS02006553YS02006556 CONDUIT    512.05     0  02:38      0.65    0.44    1.00
  YS02006556YS02006558 CONDUIT    515.12     0  02:28      0.66    0.41    1.00
  YSB6556YSB1171       CONDUIT     19.41     0  01:42      0.10    0.02    0.63
  YS02001907YS02006553 CONDUIT    511.43     0  02:38      0.57    0.60    1.00
  YS02006558YS02006561 CONDUIT    734.54     0  02:39      3.29    1.62    0.89
  YS02001633YS02163601 CONDUIT    347.15     0  02:13      0.44    0.36    1.00
  YS02001644YS02001647 CONDUIT    516.84     0  02:16      0.66    0.30    1.00
  YS02001745YS02001748 CONDUIT    506.61     0  02:16      1.56    0.20    0.94
  YS02001748YS02001751 CONDUIT    300.83     0  02:01      1.17    0.15    1.00
  YS02001751YS02001754 CONDUIT    211.60     0  02:15      1.01    0.10    1.00
  YS02001754YS02001757 CONDUIT    213.02     0  02:15      0.33    0.09    1.00
  YS02001882YS02001884 CONDUIT     15.08     0  02:30      0.16    0.02    0.69
  YS02001884YS02001887 CONDUIT     25.11     0  02:30      0.12    0.03    0.78
  YS02001890YS02001895 CONDUIT    271.97     0  02:02      0.44    0.13    0.75
  YS02001895YS02001898 CONDUIT    274.75     0  02:05      0.58    0.48    0.61
  YS02001898YS02001901 CONDUIT    277.75     0  02:03      0.50    0.18    0.69
  YS02001901YS02001904 CONDUIT    277.15     0  02:04      0.46    0.43    0.74
  YS02001904YS02001907 CONDUIT    277.07     0  02:03      0.39    0.10    0.87
  YS02001887YS02001890 CONDUIT    269.47     0  02:09      0.39    0.46    0.83
  YS02001652YS02001649 CONDUIT    273.83     0  02:09      0.72    0.14    1.00
  YS02001655YS02001652 CONDUIT    271.47     0  02:09      1.08    0.13    1.00
  YS02001658YS02001655 CONDUIT    313.38     0  02:10      1.35    0.13    1.00
  YS02001661YS02001658 CONDUIT    628.43     0  02:10      1.65    0.25    1.00
  YS02001664YS02001661 CONDUIT    531.02     0  02:33      1.51    0.17    0.72
  YSB1154YSB6556       CONDUIT     19.20     0  01:39      0.15    0.03    0.52
  YSB1174YSB1171       CONDUIT     15.50     0  01:36      0.06    0.02    0.64
  YSB1171HS02004479    CONDUIT     34.23     0  01:40      0.54    0.02    0.50
  HS02004881HS02006253 CONDUIT     59.46     0  01:41      1.96    0.01    0.52
  YS02001793JiankangQianchi CONDUIT    886.97     0  02:24     17.26    0.07    1.00
  YS02001757CaochengTiaoxuchi CONDUIT   1256.91     0  02:16      2.23    0.55    1.00
  WSF200WS02003060     CONDUIT    606.90     0  03:11      1.66    0.13    0.36
  1                    CONDUIT   1008.87     0  03:15      3.33    0.35    0.41
  CC-Pump-1            PUMP       200.00     0  03:00              1.00
  CC-Pump-2            PUMP       200.00     0  03:00              1.00
  JK-Pump-1            PUMP       300.00     0  00:00              1.00
  JK-Pump-2            PUMP       683.00     0  00:00              1.00
  XR-Pump-1            PUMP        95.00     0  00:00              1.00
  XR-Pump-2            PUMP        95.00     0  00:00              1.00
  XR-Pump-3            PUMP        95.00     0  00:00              1.00
  XR-Pump-4            PUMP        95.00     0  00:00              1.00
  
  
  ***************************
  Flow Classification Summary
  ***************************
  
  -------------------------------------------------------------------------------------
                      Adjusted    ---------- Fraction of Time in Flow Class ---------- 
                       /Actual         Up    Down  Sub   Sup   Up    Down  Norm  Inlet 
  Conduit               Length    Dry  Dry   Dry   Crit  Crit  Crit  Crit  Ltd   Ctrl  
  -------------------------------------------------------------------------------------
  WS02003066WSF200        1.00   0.01  0.04  0.00  0.00  0.95  0.00  0.00  0.52  0.00
  WS02006287WS02006284    1.00   0.02  0.01  0.00  0.65  0.31  0.00  0.00  0.74  0.00
  WS02006284WS02006280    1.00   0.03  0.00  0.00  0.00  0.00  0.00  0.97  0.00  0.00
  WS02006280WS02006229    1.00   0.03  0.00  0.00  0.00  0.00  0.00  0.97  0.00  0.00
  WS02006229WS02006228    1.00   0.00  0.00  0.00  1.00  0.00  0.00  0.00  0.00  0.00
  WS02006256WS02006235    1.00   0.00  0.00  0.00  1.00  0.00  0.00  0.00  0.00  0.00
  WS02006253WS02006251    1.00   0.01  0.01  0.00  0.97  0.00  0.01  0.00  0.00  0.00
  WS02006252WS02006251    1.00   0.14  0.00  0.00  0.08  0.00  0.78  0.00  0.00  0.00
  WS02006251WS02006249    1.00   0.00  0.00  0.00  1.00  0.00  0.00  0.00  0.17  0.00
  WS02006249WS02006248    1.00   0.00  0.01  0.00  0.94  0.00  0.05  0.00  0.00  0.00
  WS02006248WS02006247    1.00   0.01  0.00  0.00  0.98  0.00  0.00  0.01  0.06  0.00
  WS02006247WS02006245    1.00   0.01  0.00  0.00  0.97  0.00  0.00  0.03  0.00  0.00
  WS02006245WS02006243    1.00   0.00  0.00  0.00  0.96  0.00  0.00  0.04  0.01  0.00
  WS02006243WS02006242    1.00   0.00  0.00  0.00  0.99  0.00  0.00  0.00  0.21  0.00
  WS02006242WS02006240    1.00   0.00  0.00  0.00  0.99  0.00  0.00  0.00  0.00  0.00
  WS02006240WS02006239    1.00   0.00  0.00  0.00  0.96  0.00  0.00  0.04  0.01  0.00
  WS02006239WS02006238    1.00   0.00  0.00  0.00  1.00  0.00  0.00  0.00  0.12  0.00
  WS02006238WS02006235    1.00   0.00  0.00  0.00  1.00  0.00  0.00  0.00  0.00  0.00
  WS02006235WS02006234    1.00   0.00  0.00  0.00  0.97  0.00  0.03  0.00  0.00  0.00
  WS02006234WS02006232    1.00   0.00  0.00  0.00  1.00  0.00  0.00  0.00  0.08  0.00
  WS02006232WS02006231    1.00   0.00  0.00  0.00  1.00  0.00  0.00  0.00  0.00  0.00
  WS02006231WS02006230    1.00   0.00  0.00  0.00  0.85  0.00  0.15  0.00  0.00  0.00
  WS02006230WS02006229    1.00   0.00  0.00  0.00  1.00  0.00  0.00  0.00  0.01  0.00
  WS02006228WS02006109    1.00   0.00  0.00  0.00  1.00  0.00  0.00  0.00  0.00  0.00
  WS02006116WS02004401    1.00   0.01  0.00  0.00  0.99  0.00  0.00  0.00  0.01  0.00
  WS02006115WS02006116    1.00   0.01  0.00  0.00  0.98  0.00  0.00  0.01  0.01  0.00
  WS02006113WS02006111    1.00   0.00  0.00  0.00  0.00  0.99  0.00  0.00  0.15  0.00
  WS02006112WS02006115    1.00   0.01  0.00  0.00  0.99  0.00  0.00  0.00  0.00  0.00
  WS02006111WS02006112    1.00   0.01  0.00  0.00  0.99  0.00  0.00  0.00  0.97  0.00
  WS02006110WS02006113    1.00   0.00  0.00  0.00  1.00  0.00  0.00  0.00  0.00  0.00
  WS02006109WS02006110    1.00   0.00  0.00  0.00  1.00  0.00  0.00  0.00  0.00  0.00
  WS02004411WS02004412    1.00   0.04  0.00  0.00  0.96  0.00  0.00  0.00  0.00  0.00
  WS02004401WS02004402    1.00   0.01  0.00  0.00  0.99  0.00  0.00  0.00  0.01  0.00
  WS02004413WS02003067    1.00   0.04  0.01  0.00  0.00  0.00  0.95  0.00  0.00  0.00
  WS02004412WS02004413    1.00   0.04  0.00  0.00  0.95  0.00  0.00  0.00  0.00  0.00
  WS02004410WS02004411    1.00   0.04  0.00  0.00  0.96  0.00  0.00  0.00  0.00  0.00
  WS02004409WS02004410    1.00   0.04  0.00  0.00  0.96  0.00  0.00  0.00  0.00  0.00
  WS02004407WS02004409    1.00   0.04  0.00  0.00  0.95  0.01  0.00  0.00  0.82  0.00
  WS02004406WS02004407    1.00   0.00  0.04  0.00  0.96  0.00  0.00  0.00  0.00  0.00
  WS02004405WS02004406    1.00   0.00  0.00  0.00  1.00  0.00  0.00  0.00  0.02  0.00
  WS02004404WS02004405    1.00   0.00  0.00  0.00  1.00  0.00  0.00  0.00  0.00  0.00
  WS02004403WS02004404    1.00   0.00  0.01  0.00  0.99  0.00  0.00  0.00  0.02  0.00
  WS02004402WS02004403    1.00   0.01  0.00  0.00  0.99  0.00  0.00  0.00  0.00  0.00
  WS02004139WS02001211    1.00   0.00  0.00  0.00  1.00  0.00  0.00  0.00  0.00  0.00
  WS02004138WS02004139    1.00   0.00  0.00  0.00  1.00  0.00  0.00  0.00  1.00  0.00
  WS02003067WS02003066    1.00   0.05  0.00  0.00  0.95  0.00  0.00  0.00  0.00  0.00
  WS02001213WS02003059    1.00   0.00  0.00  0.00  1.00  0.00  0.00  0.00  0.00  0.00
  WS02001212WS02001213    1.00   0.00  0.00  0.00  0.94  0.00  0.06  0.00  0.00  0.00
  WS02001211WS02001212    1.00   0.00  0.00  0.00  1.00  0.00  0.00  0.00  0.00  0.00
  WS02003072WS02003073    1.00   0.00  0.00  0.00  0.00  0.00  0.00  1.00  0.00  0.00
  WS02003069WS02003072    1.00   0.00  0.00  0.00  1.00  0.00  0.00  0.00  0.06  0.00
  WS02003060WS02003069    1.00   0.00  0.00  0.00  0.99  0.01  0.00  0.00  0.05  0.00
  WS02003059WS02003060    1.00   0.00  0.00  0.00  1.00  0.00  0.00  0.00  0.00  0.00
  HS02004901HS02004770    1.00   0.03  0.00  0.00  0.97  0.00  0.00  0.00  0.00  0.00
  HS02004876HS02004881    1.00   0.01  0.00  0.00  0.99  0.00  0.00  0.00  0.00  0.00
  HS02004870HS02004876    1.00   0.00  0.00  0.00  1.00  0.00  0.00  0.00  0.95  0.00
  HS02004842HS02004848    1.00   0.00  0.03  0.00  0.97  0.00  0.00  0.00  0.58  0.00
  HS02004837HS02004842    1.00   0.00  0.00  0.00  1.00  0.00  0.00  0.00  0.11  0.00
  HS02004830HS02004837    1.00   0.00  0.00  0.00  1.00  0.00  0.00  0.00  0.99  0.00
  HS02004824HS02004830    1.00   0.00  0.00  0.00  1.00  0.00  0.00  0.00  0.00  0.00
  HS02004817HS02004824    1.00   0.00  0.00  0.00  1.00  0.00  0.00  0.00  1.00  0.00
  HS02004770HS02004777    1.00   0.00  0.03  0.00  0.97  0.00  0.00  0.00  0.01  0.00
  HS02004799HS02004480    1.00   0.00  0.01  0.00  0.97  0.00  0.02  0.00  0.00  0.00
  HS02004792HS02004799    1.00   0.00  0.00  0.00  1.00  0.00  0.00  0.00  0.98  0.00
  HS02004788HS02004792    1.00   0.00  0.00  0.00  1.00  0.00  0.00  0.00  0.98  0.00
  HS02004785HS02004788    1.00   0.00  0.00  0.00  1.00  0.00  0.00  0.00  0.00  0.00
  HS02004777HS02004785    1.00   0.00  0.00  0.00  1.00  0.00  0.00  0.00  0.11  0.00
  HS02004480HS02004478    1.00   0.03  0.00  0.00  0.70  0.00  0.00  0.27  0.00  0.00
  HS02004479HS02004480    1.00   0.01  0.00  0.00  0.99  0.00  0.00  0.00  0.11  0.00
  HS02004862HS02004870    1.00   0.00  0.00  0.00  1.00  0.00  0.00  0.00  0.03  0.00
  HS02004848HS02004852    1.00   0.03  0.00  0.00  0.97  0.00  0.00  0.00  0.79  0.00
  HS02004856HS02004862    1.00   0.00  0.03  0.00  0.97  0.00  0.00  0.00  0.84  0.00
  HS02004852HS02004856    1.00   0.03  0.00  0.00  0.97  0.00  0.00  0.00  0.86  0.00
  HS02004802HS02004478    1.00   0.03  0.00  0.00  0.97  0.00  0.00  0.00  0.02  0.00
  HS02004478WS02006287    1.00   0.03  0.00  0.00  0.86  0.11  0.00  0.00  0.72  0.00
  HS02004817HS02004807    1.00   0.00  0.03  0.00  0.97  0.00  0.00  0.00  0.01  0.00
  HS02004807HS02004802    1.00   0.03  0.00  0.00  0.97  0.00  0.00  0.00  0.00  0.00
  YS02001759YS02001757    1.00   0.00  0.00  0.00  1.00  0.00  0.00  0.00  0.15  0.00
  YS02001762YS02001759    1.00   0.00  0.00  0.00  1.00  0.00  0.00  0.00  0.02  0.00
  YS02001765YS02001762    1.00   0.00  0.00  0.00  1.00  0.00  0.00  0.00  0.13  0.00
  YS02001770YS02001767    1.00   0.00  0.00  0.00  1.00  0.00  0.00  0.00  0.00  0.00
  YS02001774YS02001770    1.00   0.00  0.03  0.00  0.97  0.00  0.00  0.00  0.01  0.00
  YS02001779YS02001774    1.00   0.00  0.00  0.00  1.00  0.00  0.00  0.00  0.17  0.00
  YS02001649YS02001757    1.00   0.00  0.00  0.00  1.00  0.00  0.00  0.00  0.15  0.00
  YS02001767YS02001765    1.00   0.00  0.00  0.00  1.00  0.00  0.00  0.00  0.00  0.00
  YS02006561YS02001783    1.00   0.04  0.00  0.00  0.16  0.81  0.00  0.00  0.58  0.00
  YS02001783YS02001784    1.00   0.00  0.04  0.00  0.96  0.00  0.00  0.00  0.00  0.00
  YS02001784YS02001785    1.00   0.00  0.00  0.00  1.00  0.00  0.00  0.00  0.16  0.00
  YS02001788YS02001790    1.00   0.00  0.00  0.00  0.21  0.79  0.00  0.00  0.54  0.00
  YS02001790YS02001791    1.00   0.00  0.00  0.00  0.21  0.79  0.00  0.00  0.59  0.00
  YS02001791YS02001793    1.00   0.00  0.00  0.00  0.31  0.69  0.00  0.00  0.08  0.00
  YS02001910YS02001907    1.00   0.00  0.00  0.00  0.99  0.00  0.00  0.01  0.12  0.00
  YS02001786YS02001788    1.00   0.00  0.00  0.00  0.19  0.81  0.00  0.00  0.00  0.00
  YS02001915YS02001910    1.00   0.00  0.00  0.00  0.99  0.01  0.00  0.00  0.13  0.00
  YS02001918YS02001915    1.00   0.00  0.00  0.00  0.99  0.00  0.00  0.00  0.61  0.00
  YS02001923YS02001920    1.00   0.00  0.00  0.00  1.00  0.00  0.00  0.00  1.00  0.00
  YS02001926YS02001923    1.00   0.00  0.02  0.00  0.00  0.00  0.98  0.00  0.00  0.00
  YS02001929YS02001926    1.00   0.00  0.03  0.00  0.97  0.00  0.00  0.00  0.87  0.00
  YS02001920YS02001918    1.00   0.00  0.00  0.00  1.00  0.00  0.00  0.00  0.00  0.00
  YS02001629YS02163301    1.00   0.03  0.00  0.00  0.97  0.00  0.00  0.00  0.00  0.00
  YS02001619YS02001622    1.00   0.03  0.00  0.00  0.97  0.00  0.00  0.00  0.00  0.00
  YS02001622YS02001625    1.00   0.03  0.00  0.00  0.97  0.00  0.00  0.00  0.03  0.00
  YS02001625YS02001629    1.00   0.03  0.01  0.00  0.95  0.00  0.01  0.00  0.00  0.00
  YS02163301YS02001633    1.00   0.00  0.03  0.00  0.97  0.00  0.00  0.00  0.00  0.00
  YS02163601YS02164001    1.00   0.00  0.02  0.00  0.98  0.00  0.00  0.00  0.00  0.00
  YS02164001YS02001641    1.00   0.00  0.02  0.00  0.98  0.00  0.00  0.00  0.05  0.00
  YS02001641YS02001644    1.00   0.00  0.00  0.00  1.00  0.00  0.00  0.00  0.00  0.00
  YS02001647YS02001649    1.00   0.00  0.03  0.00  0.97  0.00  0.00  0.00  0.01  0.00
  YS02006553YS02006556    1.00   0.00  0.00  0.00  1.00  0.00  0.00  0.00  0.03  0.00
  YS02006556YS02006558    1.00   0.00  0.00  0.00  1.00  0.00  0.00  0.00  0.00  0.00
  YSB6556YSB1171          1.00   0.01  0.02  0.00  0.97  0.00  0.00  0.00  0.00  0.00
  YS02001907YS02006553    1.00   0.00  0.01  0.00  0.99  0.00  0.00  0.00  0.00  0.00
  YS02006558YS02006561    1.00   0.04  0.00  0.00  0.00  0.96  0.00  0.00  0.56  0.00
  YS02001633YS02163601    1.00   0.00  0.00  0.00  1.00  0.00  0.00  0.00  0.14  0.00
  YS02001644YS02001647    1.00   0.00  0.03  0.00  0.97  0.00  0.00  0.00  0.00  0.00
  YS02001745YS02001748    1.00   0.00  0.00  0.00  0.94  0.00  0.00  0.06  0.03  0.00
  YS02001748YS02001751    1.00   0.00  0.00  0.00  0.98  0.02  0.00  0.00  0.14  0.00
  YS02001751YS02001754    1.00   0.00  0.00  0.00  0.96  0.00  0.00  0.04  0.01  0.00
  YS02001754YS02001757    1.00   0.00  0.00  0.00  1.00  0.00  0.00  0.00  0.16  0.00
  YS02001882YS02001884    1.00   0.03  0.00  0.00  0.97  0.00  0.00  0.00  0.00  0.00
  YS02001884YS02001887    1.00   0.01  0.01  0.00  0.98  0.00  0.00  0.00  0.00  0.00
  YS02001890YS02001895    1.00   0.00  0.03  0.00  0.97  0.00  0.00  0.00  0.00  0.00
  YS02001895YS02001898    1.00   0.03  0.00  0.00  0.96  0.00  0.01  0.00  0.00  0.00
  YS02001898YS02001901    1.00   0.03  0.00  0.00  0.97  0.00  0.00  0.00  0.01  0.00
  YS02001901YS02001904    1.00   0.03  0.00  0.00  0.97  0.00  0.00  0.00  0.00  0.00
  YS02001904YS02001907    1.00   0.00  0.03  0.00  0.97  0.00  0.00  0.00  0.00  0.00
  YS02001887YS02001890    1.00   0.00  0.00  0.00  0.99  0.00  0.01  0.00  0.00  0.00
  YS02001652YS02001649    1.00   0.00  0.00  0.00  1.00  0.00  0.00  0.00  0.15  0.00
  YS02001655YS02001652    1.00   0.00  0.00  0.00  0.96  0.00  0.00  0.04  0.02  0.00
  YS02001658YS02001655    1.00   0.00  0.03  0.00  0.95  0.02  0.00  0.00  0.02  0.00
  YS02001661YS02001658    1.00   0.03  0.00  0.00  0.94  0.03  0.00  0.00  0.03  0.00
  YS02001664YS02001661    1.00   0.03  0.00  0.00  0.93  0.04  0.00  0.00  0.16  0.00
  YSB1154YSB6556          1.00   0.03  0.00  0.00  0.97  0.00  0.00  0.00  0.01  0.00
  YSB1174YSB1171          1.00   0.01  0.01  0.00  0.98  0.00  0.00  0.00  0.00  0.00
  YSB1171HS02004479       1.00   0.01  0.00  0.00  0.99  0.00  0.00  0.00  0.10  0.00
  HS02004881HS02006253    1.00   0.01  0.00  0.00  0.80  0.01  0.00  0.18  0.61  0.00
  YS02001793JiankangQianchi    1.00   0.00  0.00  0.00  0.62  0.38  0.00  0.00  0.40  0.00
  YS02001757CaochengTiaoxuchi    1.00   0.00  0.05  0.00  0.95  0.00  0.00  0.00  0.00  0.00
  WSF200WS02003060        1.00   0.00  0.01  0.00  0.99  0.00  0.00  0.00  0.26  0.00
  1                       1.00   0.00  0.00  0.00  0.00  1.00  0.00  0.00  0.51  0.00
  
  
  *************************
  Conduit Surcharge Summary
  *************************
  
  ----------------------------------------------------------------------------
                                                           Hours        Hours 
                         --------- Hours Full --------   Above Full   Capacity
  Conduit                Both Ends  Upstream  Dnstream   Normal Flow   Limited
  ----------------------------------------------------------------------------
  WS02006229WS02006228        4.18      4.39      4.18      5.66         4.18
  WS02006256WS02006235        6.08      6.09      6.81      4.39         0.01
  WS02006253WS02006251        1.54      1.54      1.61      0.01         0.01
  WS02006252WS02006251        1.53      1.53      2.49      2.22         0.01
  WS02006251WS02006249        1.55      1.56      1.61      1.35         0.99
  WS02006249WS02006248        1.52      1.52      1.61      4.55         0.01
  WS02006248WS02006247        1.58      1.58      1.80      0.01         0.01
  WS02006247WS02006245        1.75      1.87      1.75      4.79         1.75
  WS02006245WS02006243        1.82      1.83      1.97      0.63         0.48
  WS02006243WS02006242        2.04      2.04      2.77      0.01         0.01
  WS02006242WS02006240        2.35      2.35      3.08      2.67         0.01
  WS02006240WS02006239        2.45      2.48      2.62      1.34         0.81
  WS02006239WS02006238        2.99      3.05      3.40      1.49         0.97
  WS02006238WS02006235        3.33      3.33      3.89      0.01         0.01
  WS02006235WS02006234        2.33      2.33      3.03      6.04         0.01
  WS02006234WS02006232        2.71      2.71      4.27      0.94         0.87
  WS02006232WS02006231        1.24      1.24      4.27      1.11         0.01
  WS02006231WS02006230        0.93      0.93      1.30      6.08         0.01
  WS02006230WS02006229        5.15      5.41      5.15      6.29         5.15
  WS02006228WS02006109        4.28      4.88      4.28      6.06         4.28
  WS02006112WS02006115        0.01      0.01      1.92      0.01         0.01
  WS02006111WS02006112        0.01      0.01      5.67      0.01         0.01
  WS02006110WS02006113        0.01      0.01      4.62      0.01         0.01
  WS02006109WS02006110        1.31      1.31      4.88      1.33         0.01
  WS02004405WS02004406        0.01      0.07      0.01      1.64         0.01
  WS02004404WS02004405        0.07      0.22      0.07      6.36         0.07
  WS02004403WS02004404        0.01      0.01      0.22      0.01         0.01
  WS02003072WS02003073        0.01      0.01      0.01      6.16         0.01
  YS02001759YS02001757        6.16      6.16      6.20      0.01         0.01
  YS02001762YS02001759        6.15      6.15      6.16      0.01         0.01
  YS02001765YS02001762        6.12      6.12      6.15      0.01         0.01
  YS02001770YS02001767        6.11      6.11      6.11      0.01         0.89
  YS02001774YS02001770        6.10      6.10      6.13      0.01         0.01
  YS02001779YS02001774        5.95      5.95      6.13      0.01         0.01
  YS02001649YS02001757        6.15      6.15      6.20      0.01         0.01
  YS02001767YS02001765        6.11      6.11      6.12      0.01         0.01
  YS02006561YS02001783        0.01      0.01      0.24      0.01         0.01
  YS02001783YS02001784        0.24      0.24      0.27      0.01         0.06
  YS02001784YS02001785        0.23      0.27      0.23      1.85         0.22
  YS02001788YS02001790        0.20      0.20      0.80      0.01         0.01
  YS02001790YS02001791        0.80      0.80      0.93      0.01         0.01
  YS02001791YS02001793        0.93      0.93      1.58      0.01         0.01
  YS02001910YS02001907        0.01      0.01      1.28      0.01         0.01
  YS02001786YS02001788        0.20      0.23      0.20      1.46         0.20
  YS02001629YS02163301        6.10      6.10      6.10      0.01         0.01
  YS02001619YS02001622        5.71      5.71      5.78      0.01         0.01
  YS02001622YS02001625        5.78      5.78      6.05      0.01         0.01
  YS02001625YS02001629        5.73      5.73      6.05      0.01         0.01
  YS02163301YS02001633        6.10      6.10      6.12      0.01         0.01
  YS02163601YS02164001        6.12      6.12      6.14      0.01         0.01
  YS02164001YS02001641        6.12      6.12      6.13      0.01         0.03
  YS02001641YS02001644        6.13      6.13      6.13      0.37         1.25
  YS02001647YS02001649        6.02      6.02      6.15      0.01         0.01
  YS02006553YS02006556        0.01      0.01      1.37      0.01         0.01
  YS02006556YS02006558        0.77      0.77      1.45      0.01         0.01
  YS02001907YS02006553        1.91      1.91      2.09      0.01         0.01
  YS02006558YS02006561        0.01      0.01      0.01      1.74         0.01
  YS02001633YS02163601        6.12      6.12      6.14      0.01         0.01
  YS02001644YS02001647        6.01      6.01      6.13      0.01         0.01
  YS02001745YS02001748        0.01      0.01      5.48      0.01         0.01
  YS02001748YS02001751        5.54      5.54      5.74      0.01         0.01
  YS02001751YS02001754        5.74      5.74      5.95      0.01         0.01
  YS02001754YS02001757        6.00      6.00      6.20      0.01         0.01
  YS02001904YS02001907        0.01      0.01      1.39      0.01         0.01
  YS02001652YS02001649        6.04      6.04      6.15      0.01         0.01
  YS02001655YS02001652        5.76      5.76      5.98      0.01         0.01
  YS02001658YS02001655        5.50      5.50      5.76      0.01         0.01
  YS02001661YS02001658        0.16      0.16      5.50      0.01         0.01
  YS02001664YS02001661        0.01      0.01      0.85      0.01         0.01
  HS02004881HS02006253        0.01      0.01      0.82      0.01         0.01
  YS02001793JiankangQianchi        1.31      1.31      3.95      0.01         0.01
  YS02001757CaochengTiaoxuchi        5.44      5.44      6.20      0.01         0.01
  
  
  ***************
  Pumping Summary
  ***************
  
  ---------------------------------------------------------------------------------------------------------
                                                  Min       Avg       Max     Total     Power    % Time Off
                        Percent   Number of      Flow      Flow      Flow    Volume     Usage    Pump Curve
  Pump                 Utilized   Start-Ups       LPS       LPS       LPS  10^6 ltr     Kw-hr    Low   High
  ---------------------------------------------------------------------------------------------------------
  CC-Pump-1               65.95           2      0.00    185.86    200.00     3.420      3.74    0.0    0.0
  CC-Pump-2               40.41           5      0.00    104.27    200.00     1.440      1.98    0.0    0.0
  JK-Pump-1               63.82           6      0.00    198.41    300.00     3.535     56.31    0.0    0.0
  JK-Pump-2               51.05           6      0.00    323.02    683.00     4.541     76.34    0.0   96.4
  XR-Pump-1               97.87           2      0.00     94.57     95.00     2.565     31.29    0.0    0.0
  XR-Pump-2               97.87           2      0.00     94.57     95.00     2.565     31.29    0.0    0.0
  XR-Pump-3               97.87           2      0.00     93.39     95.00     2.508     30.10    0.0    0.0
  XR-Pump-4               97.87           2      0.00     93.39     95.00     2.508     30.10    0.0    0.0
  
  
  ***************************
  Link Pollutant Load Summary
  ***************************
  
  ------------------------------------------------------------------------------------------
                                 COD            SS            TN            TP         NH4-N
  Link                            kg            kg            kg            kg            kg
  ------------------------------------------------------------------------------------------
  WS02003066WSF200           737.872      1317.144        20.614         1.836        10.986
  WS02006287WS02006284       192.702       348.303         7.869         0.835         4.505
  WS02006284WS02006280       193.201       349.100         7.918         0.841         4.536
  WS02006280WS02006229       193.176       349.055         7.916         0.840         4.534
  WS02006229WS02006228       739.488      1320.071        20.166         1.768        10.681
  WS02006256WS02006235       171.625       303.032         4.137         0.336         2.136
  WS02006253WS02006251        35.748        67.191         0.865         0.068         0.439
  WS02006252WS02006251       369.793       655.113         7.908         0.570         3.896
  WS02006251WS02006249       399.149       711.095         8.653         0.631         4.279
  WS02006249WS02006248       382.284       681.045         8.286         0.604         4.097
  WS02006248WS02006247       382.148       680.854         8.284         0.604         4.096
  WS02006247WS02006245       381.606       679.922         8.271         0.603         4.090
  WS02006245WS02006243       381.202       679.327         8.258         0.602         4.083
  WS02006243WS02006242       381.143       679.297         8.260         0.602         4.084
  WS02006242WS02006240       380.781       678.610         8.257         0.602         4.083
  WS02006240WS02006239       380.647       678.276         8.263         0.603         4.088
  WS02006239WS02006238       381.272       679.276         8.295         0.607         4.106
  WS02006238WS02006235       381.236       678.961         8.306         0.608         4.114
  WS02006235WS02006234       548.995       975.659        12.315         0.932         6.179
  WS02006234WS02006232       548.648       975.076        12.311         0.932         6.178
  WS02006232WS02006231       548.148       974.193        12.300         0.932         6.172
  WS02006231WS02006230       547.778       973.576        12.292         0.931         6.169
  WS02006230WS02006229       547.677       973.446        12.298         0.932         6.173
  WS02006228WS02006109       738.934      1319.142        20.150         1.766        10.672
  WS02006116WS02004401       748.370      1335.194        20.910         1.861        11.142
  WS02006115WS02006116       749.278      1336.732        20.938         1.864        11.158
  WS02006113WS02006111       745.367      1329.206        20.897         1.862        11.144
  WS02006112WS02006115       750.456      1338.781        20.980         1.868        11.181
  WS02006111WS02006112       745.051      1328.657        20.889         1.861        11.140
  WS02006110WS02006113       745.935      1330.191        20.918         1.864        11.156
  WS02006109WS02006110       746.940      1331.927        20.957         1.868        11.178
  WS02004411WS02004412       741.304      1323.051        20.743         1.849        11.058
  WS02004401WS02004402       747.244      1333.248        20.869         1.857        11.120
  WS02004413WS02003067       738.441      1318.093        20.633         1.837        10.996
  WS02004412WS02004413       740.175      1321.113        20.706         1.845        11.038
  WS02004410WS02004411       742.174      1324.528        20.772         1.851        11.074
  WS02004409WS02004410       743.104      1326.121        20.804         1.855        11.092
  WS02004407WS02004409       743.773      1327.236        20.825         1.856        11.103
  WS02004406WS02004407       743.834      1327.293        20.825         1.856        11.103
  WS02004405WS02004406       745.377      1329.911        20.899         1.864        11.147
  WS02004404WS02004405       745.937      1330.868        20.892         1.862        11.140
  WS02004403WS02004404       745.405      1330.090        20.805         1.851        11.084
  WS02004402WS02004403       746.349      1331.725        20.840         1.855        11.103
  WS02004139WS02001211      1530.848      2485.730       134.207        16.553        83.224
  WS02004138WS02004139      1538.419      2497.982       134.876        16.636        83.639
  WS02003067WS02003066       738.079      1317.503        20.622         1.836        10.990
  WS02001213WS02003059      1561.156      2533.918       137.244        16.935        85.127
  WS02001212WS02001213      1571.942      2551.339       138.212        17.055        85.729
  WS02001211WS02001212      1574.111      2554.834       138.409        17.079        85.852
  WS02003072WS02003073      2396.884      4007.104       167.517        19.982       102.162
  WS02003069WS02003072      2402.466      4016.223       167.980        20.039       102.448
  WS02003060WS02003069      2405.644      4021.463       168.207        20.066       102.586
  WS02003059WS02003060      1557.278      2527.619       136.910        16.894        84.921
  HS02004901HS02004770         6.587        12.284         0.126         0.009         0.059
  HS02004876HS02004881        24.755        47.126         0.595         0.046         0.299
  HS02004870HS02004876        18.723        35.514         0.488         0.039         0.249
  HS02004842HS02004848         3.653         6.694         0.078         0.005         0.036
  HS02004837HS02004842         8.306        14.097         0.549         0.065         0.332
  HS02004830HS02004837        58.060        97.475         4.414         0.536         2.716
  HS02004824HS02004830        58.812        98.680         4.486         0.545         2.761
  HS02004817HS02004824        73.076       126.114         4.785         0.564         2.907
  HS02004770HS02004777        25.087        47.237         0.530         0.035         0.242
  HS02004799HS02004480        88.831       161.661         2.850         0.275         1.542
  HS02004792HS02004799        80.824       145.797         2.750         0.272         1.503
  HS02004788HS02004792        48.376        87.181         1.985         0.207         1.121
  HS02004785HS02004788        26.487        49.468         0.676         0.054         0.335
  HS02004777HS02004785        25.813        48.387         0.614         0.046         0.296
  HS02004480HS02004478       111.503       205.217         3.196         0.298         1.700
  HS02004479HS02004480        26.260        49.338         0.653         0.060         0.347
  HS02004862HS02004870        13.886        25.845         0.393         0.033         0.203
  HS02004848HS02004852         4.921         9.099         0.104         0.007         0.048
  HS02004856HS02004862         8.937        17.021         0.182         0.012         0.085
  HS02004852HS02004856         4.935         9.123         0.104         0.007         0.048
  HS02004802HS02004478        82.225       144.778         4.741         0.545         2.847
  HS02004478WS02006287       192.894       348.614         7.887         0.837         4.517
  HS02004817HS02004807        71.700       123.944         4.642         0.545         2.817
  HS02004807HS02004802        82.366       144.987         4.771         0.549         2.867
  YS02001759YS02001757       283.502       504.670         5.835         0.400         2.859
  YS02001762YS02001759       138.838       248.666         3.081         0.215         1.533
  YS02001765YS02001762       138.320       247.798         3.095         0.217         1.543
  YS02001770YS02001767       135.766       243.701         2.804         0.179         1.358
  YS02001774YS02001770        34.001        62.475         0.685         0.044         0.331
  YS02001779YS02001774        32.445        59.379         0.753         0.056         0.382
  YS02001649YS02001757       260.091       448.670         5.297         0.373         2.532
  YS02001767YS02001765       138.305       247.755         3.112         0.219         1.554
  YS02006561YS02001783       621.238      1101.271        13.992         1.081         7.085
  YS02001783YS02001784       621.165      1101.166        13.988         1.081         7.082
  YS02001784YS02001785       628.520      1112.948        14.701         1.170         7.528
  YS02001788YS02001790       629.139      1113.943        14.774         1.180         7.574
  YS02001790YS02001791       630.162      1115.589        14.873         1.192         7.637
  YS02001791YS02001793       630.091      1115.452        14.870         1.192         7.635
  YS02001910YS02001907       208.116       363.104         5.872         0.488         3.114
  YS02001786YS02001788       628.733      1113.293        14.729         1.174         7.546
  YS02001915YS02001910       208.161       363.149         5.835         0.483         3.089
  YS02001918YS02001915       100.495       167.480         3.544         0.354         1.995
  YS02001923YS02001920        80.610       135.730         1.599         0.111         0.778
  YS02001926YS02001923        80.274       135.200         1.560         0.106         0.754
  YS02001929YS02001926        80.044       134.821         1.529         0.102         0.734
  YS02001920YS02001918       100.507       167.565         3.517         0.351         1.977
  YS02001629YS02163301        86.587       150.153         1.837         0.117         0.854
  YS02001619YS02001622        89.273       154.306         1.903         0.121         0.883
  YS02001622YS02001625        88.261       152.750         1.878         0.119         0.872
  YS02001625YS02001629        87.119       151.042         1.850         0.118         0.859
  YS02163301YS02001633        87.317       151.430         1.848         0.118         0.860
  YS02163601YS02164001       241.404       416.628         4.893         0.342         2.338
  YS02164001YS02001641       241.241       416.362         4.879         0.340         2.330
  YS02001641YS02001644       241.990       417.613         4.887         0.341         2.333
  YS02001647YS02001649       233.697       402.201         4.703         0.329         2.248
  YS02006553YS02006556       448.584       792.667        10.371         0.825         5.314
  YS02006556YS02006558       448.770       793.012        10.337         0.819         5.290
  YSB6556YSB1171              14.807        27.956         0.317         0.027         0.163
  YS02001907YS02006553       448.554       792.616        10.401         0.829         5.334
  YS02006558YS02006561       621.355      1101.478        13.994         1.082         7.086
  YS02001633YS02163601       241.958       417.471         4.870         0.337         2.320
  YS02001644YS02001647       239.042       411.517         4.799         0.335         2.294
  YS02001745YS02001748       130.656       231.148         3.161         0.228         1.602
  YS02001748YS02001751       129.917       229.451         3.313         0.251         1.705
  YS02001751YS02001754       129.075       228.110         3.298         0.251         1.699
  YS02001754YS02001757       129.909       229.400         3.461         0.273         1.804
  YS02001882YS02001884         2.423         4.151         0.048         0.004         0.024
  YS02001884YS02001887         5.867        10.232         0.114         0.009         0.057
  YS02001890YS02001895       241.499       431.085         4.547         0.341         2.228
  YS02001895YS02001898       241.318       430.819         4.541         0.341         2.224
  YS02001898YS02001901       241.217       430.677         4.537         0.341         2.223
  YS02001901YS02001904       241.135       430.575         4.548         0.342         2.230
  YS02001904YS02001907       241.497       431.179         4.603         0.349         2.265
  YS02001887YS02001890       242.313       432.338         4.601         0.348         2.261
  YS02001652YS02001649        77.008       135.501         1.646         0.119         0.773
  YS02001655YS02001652        77.677       136.576         1.664         0.120         0.783
  YS02001658YS02001655        77.217       135.821         1.580         0.109         0.727
  YS02001661YS02001658        81.356       143.193         1.664         0.115         0.766
  YS02001664YS02001661       106.046       184.782         2.196         0.151         1.010
  YSB1154YSB6556              14.382        27.266         0.270         0.021         0.134
  YSB1174YSB1171               9.937        18.930         0.209         0.017         0.106
  YSB1171HS02004479           26.193        49.212         0.658         0.061         0.351
  HS02004881HS02006253        27.989        53.507         0.644         0.048         0.321
  YS02001793JiankangQianchi       635.878      1124.688        15.082         1.212         7.753
  YS02001757CaochengTiaoxuchi       583.854      1023.091        12.622         0.906         6.216
  WSF200WS02003060           737.906      1317.222        20.628         1.838        10.995
  1                         2402.196      4015.532       168.137        20.062       102.554
  CC-Pump-1                  259.676       459.870         5.554         0.400         2.736
  CC-Pump-2                  110.109       195.231         2.352         0.170         1.159
  JK-Pump-1                  199.853       354.124         4.740         0.382         2.438
  JK-Pump-2                  267.339       477.332         6.057         0.475         3.079
  XR-Pump-1                  390.205       633.482        34.243         4.224        21.236
  XR-Pump-2                  390.205       633.482        34.243         4.224        21.236
  XR-Pump-3                  381.155       618.980        33.390         4.118        20.705
  XR-Pump-4                  381.155       618.980        33.390         4.118        20.705
  

  Analysis begun on:  Sat Jul 10 16:04:56 2021
  Analysis ended on:  Sat Jul 10 16:05:00 2021
  Total elapsed time: 00:00:04