
  EPA STORM WATER MANAGEMENT MODEL - VERSION 5.1 (Build 5.3.0.dev0)
  --------------------------------------------------------------

  WARNING 04: minimum elevation drop used for Conduit WS02004404WS02004405
  WARNING 03: negative offset ignored for Link YS02001904YS02001907
  
  *********************************************************
  NOTE: The summary statistics displayed in this report are
  based on results found at every computational time step,  
  not just on results from each reporting time step.
  *********************************************************
  
  ****************
  Analysis Options
  ****************
  Flow Units ............... LPS
  Process Models:
    Rainfall/Runoff ........ YES
    RDII ................... NO
    Snowmelt ............... NO
    Groundwater ............ NO
    Flow Routing ........... YES
    Ponding Allowed ........ NO
    Water Quality .......... YES
  Infiltration Method ...... HORTON
  Flow Routing Method ...... DYNWAVE
  Surcharge Method ......... EXTRAN
  Starting Date ............ 08/28/2015 08:00:00
  Ending Date .............. 08/28/2015 15:50:00
  Antecedent Dry Days ...... 8.0
  Report Time Step ......... 00:01:00
  Wet Time Step ............ 00:01:00
  Dry Time Step ............ 00:01:00
  Routing Time Step ........ 5.00 sec
  Variable Time Step ....... YES
  Maximum Trials ........... 8
  Number of Threads ........ 4
  Head Tolerance ........... 0.001500 m
  
  
  **************************        Volume         Depth
  Runoff Quantity Continuity     hectare-m            mm
  **************************     ---------       -------
  Total Precipitation ......         5.556        12.164
  Evaporation Loss .........         0.000         0.000
  Infiltration Loss ........         1.002         2.194
  Surface Runoff ...........         3.688         8.075
  Final Storage ............         0.866         1.897
  Continuity Error (%) .....        -0.019
  
  
  **************************           COD            SS            TN            TP         NH4-N
  Runoff Quality Continuity             kg            kg            kg            kg            kg
  **************************    ----------    ----------    ----------    ----------    ----------
  Initial Buildup ..........     41378.656     70582.865      1804.177       168.684      1032.807
  Surface Buildup ..........        19.275        34.271         2.335         0.213         1.362
  Wet Deposition ...........         0.000         0.000         0.000         0.000         0.000
  Sweeping Removal .........         0.000         0.000         0.000         0.000         0.000
  Infiltration Loss ........        84.023       157.502         1.599         0.111         0.761
  BMP Removal ..............         0.000         0.000         0.000         0.000         0.000
  Surface Runoff ...........      3122.074      5752.154        60.620         4.098        28.771
  Remaining Buildup ........     38190.779     64705.500      1744.271       164.686      1004.628
  Continuity Error (%) .....         0.003         0.003         0.001         0.001         0.001
  
  
  **************************        Volume        Volume
  Flow Routing Continuity        hectare-m      10^6 ltr
  **************************     ---------     ---------
  Dry Weather Inflow .......         0.616         6.165
  Wet Weather Inflow .......         3.687        36.871
  Groundwater Inflow .......         0.000         0.000
  RDII Inflow ..............         0.000         0.000
  External Inflow ..........         0.102         1.024
  External Outflow .........         2.044        20.444
  Flooding Loss ............         1.971        19.715
  Evaporation Loss .........         0.000         0.000
  Exfiltration Loss ........         0.000         0.000
  Initial Stored Volume ....         0.076         0.761
  Final Stored Volume ......         0.611         6.108
  Continuity Error (%) .....        -3.229
  
  
  **************************           COD            SS            TN            TP         NH4-N
  Quality Routing Continuity            kg            kg            kg            kg            kg
  **************************    ----------    ----------    ----------    ----------    ----------
  Dry Weather Inflow .......      1541.201      2465.922       147.955        18.494        92.472
  Wet Weather Inflow .......      3121.354      5750.957        60.605         4.097        28.764
  Groundwater Inflow .......         0.000         0.000         0.000         0.000         0.000
  RDII Inflow ..............         0.000         0.000         0.000         0.000         0.000
  External Inflow ..........       183.418       293.469        17.608         2.201        11.005
  External Outflow .........      2369.741      4050.579       153.242        18.053        92.816
  Flooding Loss ............      1781.057      3268.338        45.912         3.995        24.123
  Exfiltration Loss ........         0.000         0.000         0.000         0.000         0.000
  Mass Reacted .............         0.000         0.000         0.000         0.000         0.000
  Initial Stored Mass ......         0.000         0.000         0.000         0.000         0.000
  Final Stored Mass ........       503.887       859.150        22.696         2.423        13.156
  Continuity Error (%) .....         3.947         3.904         1.909         1.298         1.623
  
  
  *************************
  Highest Continuity Errors
  *************************
  Node HS02004842 (14.53%)
  Node JK-storage (-14.24%)
  Node YS02001884 (10.72%)
  Node YSB1171 (2.74%)
  Node HS02004817 (2.73%)
  
  
  ***************************
  Time-Step Critical Elements
  ***************************
  Link WS02006252WS02006251 (63.43%)
  Link WS02006280WS02006229 (10.49%)
  Link WS02004404WS02004405 (6.89%)
  Link WS02006238WS02006235 (4.84%)
  Link YS02001793JiankangQianchi (3.58%)
  
  
  ********************************
  Highest Flow Instability Indexes
  ********************************
  Link YS02163601YS02164001 (48)
  Link YS02163301YS02001633 (47)
  Link YS02001629YS02163301 (47)
  Link YS02001619YS02001622 (47)
  Link YS02164001YS02001641 (44)
  
  
  *************************
  Routing Time Step Summary
  *************************
  Minimum Time Step           :     0.24 sec
  Average Time Step           :     1.12 sec
  Maximum Time Step           :     5.00 sec
  Percent in Steady State     :    -0.00
  Average Iterations per Step :     4.93
  Percent Not Converging      :    25.74
  
  
  ***************************
  Subcatchment Runoff Summary
  ***************************
  
  ------------------------------------------------------------------------------------------------------------------------------
                            Total      Total      Total      Total     Imperv       Perv      Total       Total     Peak  Runoff
                           Precip      Runon       Evap      Infil     Runoff     Runoff     Runoff      Runoff   Runoff   Coeff
  Subcatchment                 mm         mm         mm         mm         mm         mm         mm    10^6 ltr      LPS
  ------------------------------------------------------------------------------------------------------------------------------
  sub0                      12.16       0.00       0.00       0.65      11.27       0.20      11.47        0.01     1.99   0.943
  sub1                      12.16       0.00       0.00       1.12      10.73       0.22      10.95        0.07    14.96   0.900
  sub2                      12.16       0.00       0.00       4.23       7.58       0.27       7.85        0.07    15.08   0.646
  sub3                      12.16       0.00       0.00       4.29       7.54       0.21       7.75        0.17    34.61   0.637
  sub4                      12.16       0.00       0.00       1.19      10.57       0.14      10.71        0.22    42.34   0.881
  sub5                      12.16       0.00       0.00       0.69      11.21       0.16      11.38        0.13    26.18   0.935
  sub7                      12.16       0.00       0.00       0.88      11.01       0.22      11.22        0.04     7.95   0.923
  sub8                      12.16       0.00       0.00       0.89      11.00       0.21      11.20        0.07    14.89   0.921
  sub9                      12.16       0.00       0.00       0.89      10.99       0.21      11.20        0.05    11.18   0.921
  sub10                     12.16       0.00       0.00       0.79      11.10       0.18      11.28        0.12    25.49   0.928
  sub11                     12.16       0.00       0.00       0.78      11.12       0.19      11.31        0.13    27.35   0.930
  sub12                     12.16       0.00       0.00       1.27      10.53       0.31      10.85        0.09    20.52   0.892
  sub14                     12.16       0.00       0.00       0.89      10.99       0.20      11.20        0.11    22.08   0.920
  sub15                     12.16       0.00       0.00       3.28       8.45       0.37       8.82        0.15    32.49   0.725
  sub16                     12.16       0.00       0.00       3.51       8.11       0.50       8.61        0.09    20.36   0.708
  sub17                     12.16       0.00       0.00       3.41       8.23       0.48       8.71        0.07    16.72   0.716
  sub22                     12.16       0.00       0.00       4.80       6.89       0.43       7.32        0.46   102.62   0.602
  sub23                     12.16       0.00       0.00       4.05       7.62       0.45       8.07        0.38    85.35   0.663
  sub60                     12.16       0.00       0.00       1.42       8.82       0.04       8.86        2.69   336.84   0.729
  sub61                     12.16       0.00       0.00       2.01       8.94       0.06       9.00        2.78   399.45   0.740
  sub62                     12.16       0.00       0.00       0.92       9.73       0.05       9.78        3.01   415.79   0.804
  sub63                     12.16       0.00       0.00       3.46       7.82       0.06       7.88        2.39   361.21   0.648
  sub64                     12.16       0.00       0.00       1.78       8.47       0.04       8.51        2.59   320.97   0.699
  sub65                     12.16       0.00       0.00       1.54       8.61       0.04       8.65        2.66   326.54   0.711
  sub66                     12.16       0.00       0.00       3.49       7.26       0.04       7.30        2.24   290.53   0.600
  sub67                     12.16       0.00       0.00       0.91      10.24       0.07      10.31        3.18   494.23   0.848
  sub68                     12.16       0.00       0.00       1.64       9.40       0.06       9.46        2.91   432.52   0.778
  sub69                     12.16       0.00       0.00       1.73       9.72       0.09       9.82        2.29   383.95   0.807
  sub70                     12.16      10.02       0.00       6.98      13.09       0.56      13.65        3.12   394.93   0.615
  sub71                     12.16       0.00       0.00       0.93       9.48       0.05       9.53        2.25   296.34   0.783
  sub72                     12.16       0.00       0.00       0.83       7.62       0.02       7.64        1.56   151.13   0.628
  1                         12.16      13.29       0.00       1.37      14.64       3.94      18.57        4.36   399.24   0.730
  2                         12.16       0.00       0.00       3.02       2.89       1.65       4.55        1.82   245.52   0.374
  
  
  ****************************
  Subcatchment Washoff Summary
  ****************************
  
  ------------------------------------------------------------------------------------------
                                 COD            SS            TN            TP         NH4-N
  Subcatchment                    kg            kg            kg            kg            kg
  ------------------------------------------------------------------------------------------
  sub0                         2.176         4.147         0.037         0.003         0.018
  sub1                         9.268        18.138         0.173         0.012         0.083
  sub2                         5.563        10.570         0.119         0.008         0.054
  sub3                        13.747        25.918         0.288         0.019         0.132
  sub4                        21.530        42.606         0.429         0.026         0.205
  sub5                        21.300        41.103         0.378         0.029         0.183
  sub7                         4.748         9.424         0.090         0.006         0.043
  sub8                         7.142        14.500         0.143         0.008         0.069
  sub9                         6.100        12.212         0.118         0.007         0.057
  sub10                       17.532        34.266         0.321         0.023         0.155
  sub11                       17.086        33.770         0.320         0.022         0.154
  sub12                       14.392        27.890         0.260         0.019         0.125
  sub14                       13.021        25.823         0.247         0.016         0.119
  sub15                       16.182        30.744         0.313         0.023         0.146
  sub16                       10.318        19.555         0.197         0.015         0.092
  sub17                        9.471        17.789         0.175         0.014         0.082
  sub22                       48.821        90.813         0.932         0.070         0.434
  sub23                       29.138        56.181         0.627         0.041         0.287
  sub60                      203.703       376.194         4.083         0.248         1.956
  sub61                      251.300       461.579         4.699         0.320         2.261
  sub62                      262.762       491.326         5.157         0.324         2.474
  sub63                      185.047       334.594         3.739         0.261         1.731
  sub64                      253.867       452.095         4.687         0.339         2.235
  sub65                      260.106       465.192         4.834         0.344         2.309
  sub66                      146.558       263.078         3.037         0.197         1.417
  sub67                      388.205       718.566         6.963         0.510         3.363
  sub68                      276.714       513.393         5.318         0.356         2.539
  sub69                      247.676       464.012         4.658         0.325         2.225
  sub70                      413.256       778.342         8.287         0.572         3.877
  sub71                      173.740       327.842         3.597         0.206         1.720
  sub72                      136.329       239.316         2.558         0.174         1.230
  1                          280.724       531.718         5.751         0.398         2.660
  2                           35.485        61.812         1.030         0.062         0.437
  ------------------------------------------------------------------------------------------
  System                    3783.006      6994.507        73.566         4.996        34.873
  
  
  ******************
  Node Depth Summary
  ******************
  
  ---------------------------------------------------------------------------------
                                 Average  Maximum  Maximum  Time of Max    Reported
                                   Depth    Depth      HGL   Occurrence   Max Depth
  Node                 Type       Meters   Meters   Meters  days hr:min      Meters
  ---------------------------------------------------------------------------------
  WS02001211           JUNCTION     0.77     0.83     5.67     0  03:09        0.83
  WS02001212           JUNCTION     0.48     0.55     5.62     0  03:09        0.55
  WS02001213           JUNCTION     0.72     0.83     5.59     0  03:08        0.82
  WS02003069           JUNCTION     0.52     0.68     5.27     0  03:07        0.68
  WS02003072           JUNCTION     0.59     0.73     5.10     0  03:08        0.73
  WS02003073           JUNCTION     0.36     0.46     4.52     0  03:08        0.46
  WS02003060           JUNCTION     0.47     0.60     5.53     0  03:07        0.60
  WS02003066           JUNCTION     0.26     0.36     5.92     0  03:05        0.36
  WS02003059           JUNCTION     0.77     0.88     5.57     0  03:08        0.88
  WS02003067           JUNCTION     0.62     0.79     6.11     0  03:05        0.79
  WS02004401           JUNCTION     0.74     1.14     7.14     0  03:03        1.13
  WS02004402           JUNCTION     0.77     1.14     7.10     0  03:02        1.13
  WS02004403           JUNCTION     0.79     1.13     7.06     0  03:03        1.12
  WS02004404           JUNCTION     0.86     1.18     7.03     0  03:03        1.17
  WS02004406           JUNCTION     0.86     1.12     6.95     0  03:03        1.12
  WS02004409           JUNCTION     0.56     0.87     6.64     0  03:04        0.87
  WS02004410           JUNCTION     0.57     0.87     6.59     0  03:04        0.87
  WS02004411           JUNCTION     0.59     0.86     6.54     0  03:05        0.86
  WS02004412           JUNCTION     0.60     0.84     6.48     0  03:05        0.84
  WS02004413           JUNCTION     0.76     0.98     6.45     0  03:05        0.98
  WS02004405           JUNCTION     0.86     1.16     7.01     0  03:02        1.15
  WS02006109           JUNCTION     0.83     1.31     7.93     0  03:02        1.30
  WS02006110           JUNCTION     0.81     1.15     7.74     0  03:03        1.14
  WS02006111           JUNCTION     0.25     0.66     7.36     0  03:03        0.66
  WS02006112           JUNCTION     0.92     1.42     7.30     0  03:03        1.41
  WS02006113           JUNCTION     0.38     0.65     7.54     0  03:02        0.65
  WS02006115           JUNCTION     0.64     1.09     7.23     0  03:02        1.09
  WS02006116           JUNCTION     0.72     1.15     7.19     0  03:02        1.14
  WS02006230           JUNCTION     0.86     1.52     8.27     0  03:02        1.51
  WS02006231           JUNCTION     0.60     1.22     8.34     0  03:02        1.21
  WS02006232           JUNCTION     0.75     1.36     8.40     0  03:02        1.36
  WS02006234           JUNCTION     0.69     1.32     8.48     0  03:02        1.31
  WS02006235           JUNCTION     0.74     1.37     8.53     0  03:03        1.36
  WS02006238           JUNCTION     0.76     1.39     8.53     0  03:02        1.38
  WS02006240           JUNCTION     0.67     1.28     8.57     0  03:02        1.27
  WS02006242           JUNCTION     0.73     1.34     8.61     0  03:02        1.32
  WS02006243           JUNCTION     0.61     1.21     8.63     0  03:03        1.20
  WS02006245           JUNCTION     0.59     1.17     8.65     0  03:03        1.16
  WS02006247           JUNCTION     0.60     1.17     8.67     0  03:03        1.16
  WS02006248           JUNCTION     0.54     1.10     8.68     0  03:01        1.09
  WS02006249           JUNCTION     0.56     1.09     8.69     0  02:59        1.09
  WS02006239           JUNCTION     0.72     1.35     8.56     0  03:02        1.34
  WS02006251           JUNCTION     0.54     1.27     8.94     0  07:21        1.14
  WS02006252           JUNCTION     0.35     0.83     9.07     0  07:21        0.69
  WS02006253           JUNCTION     0.57     1.46     9.10     0  03:25        1.17
  WS02006256           JUNCTION     1.74     2.35     9.28     0  00:00        2.35
  WS02004138           JUNCTION     0.19     0.20     7.45     0  00:00        0.19
  WS02004139           JUNCTION     0.72     0.77     5.68     0  03:09        0.77
  WS02004407           JUNCTION     0.25     0.37     6.68     0  03:03        0.37
  WS02006228           JUNCTION     0.85     1.44     8.09     0  03:02        1.43
  WS02006229           JUNCTION     0.84     1.49     8.18     0  03:02        1.48
  WS02006280           JUNCTION     0.07     0.20     8.47     0  03:02        0.20
  WS02006284           JUNCTION     0.37     0.56     8.96     0  03:02        0.56
  WS02006287           JUNCTION     0.10     0.30     9.25     0  03:01        0.30
  WSF200               JUNCTION     0.25     0.40     5.64     0  03:05        0.40
  HS02004901           JUNCTION     0.12     0.29    10.12     0  03:01        0.29
  HS02004881           JUNCTION     0.01     0.04     9.07     0  03:01        0.04
  HS02004876           JUNCTION     0.04     0.12     9.15     0  03:01        0.12
  HS02004870           JUNCTION     0.01     0.07     9.35     0  03:01        0.07
  HS02004862           JUNCTION     0.02     0.08     9.46     0  03:01        0.08
  HS02004856           JUNCTION     0.08     0.13     9.55     0  03:01        0.13
  HS02004852           JUNCTION     0.01     0.05     9.56     0  03:01        0.05
  HS02004848           JUNCTION     0.01     0.05     9.65     0  03:01        0.05
  HS02004842           JUNCTION     0.33     0.38     9.65     0  03:01        0.38
  HS02004837           JUNCTION     0.03     0.07     9.65     0  03:01        0.07
  HS02004830           JUNCTION     0.04     0.08     9.55     0  03:01        0.08
  HS02004824           JUNCTION     0.02     0.06     9.47     0  03:01        0.06
  HS02004817           JUNCTION     0.44     0.61     9.45     0  03:01        0.61
  HS02004807           JUNCTION     0.12     0.28     9.45     0  03:01        0.28
  HS02004802           JUNCTION     0.16     0.31     9.44     0  03:01        0.31
  HS02004799           JUNCTION     0.12     0.35     9.56     0  03:01        0.35
  HS02004792           JUNCTION     0.03     0.15     9.67     0  03:01        0.15
  HS02004788           JUNCTION     0.03     0.11    10.01     0  03:01        0.11
  HS02004785           JUNCTION     0.04     0.18    10.09     0  03:01        0.18
  HS02004777           JUNCTION     0.15     0.31    10.11     0  03:01        0.31
  HS02004770           JUNCTION     0.12     0.29    10.12     0  03:01        0.29
  HS02004480           JUNCTION     0.08     0.28     9.52     0  03:01        0.28
  HS02004479           JUNCTION     0.11     0.32     9.52     0  03:01        0.32
  HS02004478           JUNCTION     0.06     0.20     9.42     0  03:01        0.20
  YS02001745           JUNCTION     0.73     0.92     8.44     0  03:00        0.92
  YS02001748           JUNCTION     1.13     1.59     8.67     0  02:27        1.35
  YS02001751           JUNCTION     1.32     1.71     8.59     0  02:27        1.55
  YS02001754           JUNCTION     1.57     1.84     8.45     0  02:27        1.82
  YS02001762           JUNCTION     1.77     2.04     8.44     0  02:50        2.02
  YS02001765           JUNCTION     1.72     1.99     8.44     0  02:56        1.96
  YS02001767           JUNCTION     1.69     1.94     8.43     0  02:58        1.92
  YS02001770           JUNCTION     1.68     1.93     8.42     0  02:59        1.91
  YS02001774           JUNCTION     1.75     1.98     8.40     0  02:57        1.97
  YS02001779           JUNCTION     1.50     1.68     8.37     0  02:27        1.68
  YS02001882           JUNCTION     0.52     1.62     8.33     0  02:59        1.61
  YS02001884           JUNCTION     0.62     1.72     8.34     0  03:00        1.71
  YS02001759           JUNCTION     1.81     2.08     8.44     0  02:50        2.06
  YS02001887           JUNCTION     0.69     1.80     8.33     0  02:57        1.79
  YS02001890           JUNCTION     0.72     1.81     8.32     0  02:55        1.81
  YS02001898           JUNCTION     0.49     1.56     8.29     0  03:00        1.55
  YS02001901           JUNCTION     0.61     1.67     8.28     0  02:57        1.67
  YS02001904           JUNCTION     0.59     1.64     8.27     0  02:58        1.63
  YS02001907           JUNCTION     0.92     1.96     8.25     0  02:44        1.96
  YS02001910           JUNCTION     0.71     1.78     8.29     0  02:46        1.76
  YS02001915           JUNCTION     0.51     1.58     8.30     0  02:46        1.57
  YS02001918           JUNCTION     0.26     1.26     8.33     0  02:45        1.23
  YS02001619           JUNCTION     1.28     1.61     8.54     0  02:27        1.50
  YS02001629           JUNCTION     1.64     1.85     8.40     0  02:27        1.84
  YS02001641           JUNCTION     1.74     1.93     8.37     0  02:55        1.93
  YS02001644           JUNCTION     1.74     1.92     8.35     0  02:35        1.92
  YS02001652           JUNCTION     1.58     2.08     8.68     0  02:52        2.03
  YS02001655           JUNCTION     1.35     2.07     8.92     0  02:52        1.91
  YS02001920           JUNCTION     0.36     1.34     8.35     0  02:45        1.30
  YS02001923           JUNCTION     0.20     1.10     8.36     0  02:45        1.06
  YS02001926           JUNCTION     0.27     0.92     8.36     0  02:45        0.91
  YS02001929           JUNCTION     0.15     0.68     8.38     0  02:46        0.66
  YS02001658           JUNCTION     1.07     2.04     9.18     0  02:52        1.66
  YS02001661           JUNCTION     0.84     1.93     9.33     0  02:52        1.42
  YS02001664           JUNCTION     0.37     0.59     8.52     0  03:50        0.56
  YS02001622           JUNCTION     1.30     1.62     8.52     0  02:27        1.51
  YS02001633           JUNCTION     1.73     1.95     8.40     0  02:35        1.94
  YS02001649           JUNCTION     1.78     2.05     8.44     0  02:37        2.05
  YS02001757           JUNCTION     1.91     2.18     8.44     0  02:59        2.17
  YS02001895           JUNCTION     0.49     1.56     8.31     0  02:59        1.56
  YS02001625           JUNCTION     1.59     1.78     8.38     0  02:27        1.78
  YS02163301           JUNCTION     1.67     1.90     8.42     0  02:27        1.87
  YS02163601           JUNCTION     1.78     1.99     8.39     0  02:35        1.98
  YS02164001           JUNCTION     1.72     1.92     8.38     0  02:35        1.91
  YS02001647           JUNCTION     1.57     1.80     8.41     0  03:37        1.79
  YSB1154              JUNCTION     0.26     0.47     9.52     0  03:01        0.47
  YSB6556              JUNCTION     0.15     0.35     9.52     0  03:01        0.35
  YSB1174              JUNCTION     0.21     0.41     9.52     0  03:01        0.41
  YSB1171              JUNCTION     0.41     0.62     9.52     0  03:01        0.62
  YS02006553           JUNCTION     0.92     1.97     8.25     0  02:58        1.96
  YS02006561           JUNCTION     0.29     1.08     7.74     0  02:49        1.07
  YS02006556           JUNCTION     0.89     1.92     8.23     0  02:58        1.92
  YS02006558           JUNCTION     0.93     1.96     8.23     0  03:00        1.96
  YS02001783           JUNCTION     0.50     1.47     7.61     0  02:44        1.47
  YS02001784           JUNCTION     0.52     1.48     7.55     0  02:34        1.40
  YS02001786           JUNCTION     0.46     1.57     7.60     0  02:34        1.25
  YS02001788           JUNCTION     0.39     1.59     7.57     0  02:34        1.12
  YS02001790           JUNCTION     0.51     1.96     7.60     0  04:43        1.29
  YS02001791           JUNCTION     0.46     2.22     7.69     0  04:42        1.27
  YS02001793           JUNCTION     0.64     2.04     6.87     0  04:43        1.82
  WSC                  OUTFALL      0.36     0.45     1.12     0  03:09        0.45
  JK-storage           STORAGE      2.60     5.80     6.60     0  02:34        5.80
  CC-storage           STORAGE      1.16     1.40     8.40     0  03:03        1.40
  XR-storage           STORAGE      6.57     7.72     5.72     0  02:59        7.72
  
  
  *******************
  Node Inflow Summary
  *******************
  
  -------------------------------------------------------------------------------------------------
                                  Maximum  Maximum                  Lateral       Total        Flow
                                  Lateral    Total  Time of Max      Inflow      Inflow     Balance
                                   Inflow   Inflow   Occurrence      Volume      Volume       Error
  Node                 Type           LPS      LPS  days hr:min    10^6 ltr    10^6 ltr     Percent
  -------------------------------------------------------------------------------------------------
  WS02001211           JUNCTION      7.35   389.64     0  04:40       0.207        10.2       0.404
  WS02001212           JUNCTION      0.00   391.94     0  04:40           0        10.2       0.245
  WS02001213           JUNCTION      0.00   394.24     0  04:40           0        10.1       0.292
  WS02003069           JUNCTION      0.32  1216.85     0  03:07     0.00902        20.5       0.185
  WS02003072           JUNCTION      0.00  1216.83     0  03:07           0        20.5       0.220
  WS02003073           JUNCTION      1.82  1218.84     0  03:08      0.0514        20.5       0.259
  WS02003060           JUNCTION     16.53  1216.44     0  03:07       0.466        20.6       0.173
  WS02003066           JUNCTION      0.00   827.99     0  03:05           0          10       0.050
  WS02003059           JUNCTION      0.00   397.98     0  04:40           0        10.1       0.410
  WS02003067           JUNCTION      0.00   827.66     0  03:05           0          10       0.101
  WS02004401           JUNCTION      0.00   831.98     0  03:03           0        10.3       0.214
  WS02004402           JUNCTION      0.00   832.40     0  03:03           0        10.3       0.201
  WS02004403           JUNCTION      0.00   831.65     0  03:03           0        10.3       0.182
  WS02004404           JUNCTION      0.16   832.29     0  03:03     0.00457        10.2       0.138
  WS02004406           JUNCTION      0.00   831.73     0  03:03           0        10.2       0.336
  WS02004409           JUNCTION      0.00   831.35     0  03:03           0        10.2       0.179
  WS02004410           JUNCTION      0.00   829.02     0  03:04           0        10.1       0.202
  WS02004411           JUNCTION      0.00   827.94     0  03:04           0        10.1       0.207
  WS02004412           JUNCTION      0.00   827.54     0  03:04           0        10.1       0.221
  WS02004413           JUNCTION      0.00   827.58     0  03:05           0        10.1       0.325
  WS02004405           JUNCTION      0.04   833.09     0  03:03     0.00107        10.2       0.204
  WS02006109           JUNCTION      1.23   818.84     0  03:02      0.0347        10.3       0.193
  WS02006110           JUNCTION      0.00   818.92     0  03:02           0        10.3       0.178
  WS02006111           JUNCTION      0.00   817.44     0  03:03           0        10.3       0.041
  WS02006112           JUNCTION     16.72   831.39     0  03:03      0.0747        10.4       0.299
  WS02006113           JUNCTION      0.00   818.77     0  03:02           0        10.3       0.090
  WS02006115           JUNCTION      0.00   831.43     0  03:03           0        10.3       0.205
  WS02006116           JUNCTION      0.00   831.51     0  03:03           0        10.3       0.175
  WS02006230           JUNCTION     10.28   534.44     0  07:22        0.29        8.18       0.172
  WS02006231           JUNCTION      0.00   524.53     0  07:22           0         7.9       0.100
  WS02006232           JUNCTION      0.00   524.48     0  07:22           0        7.91       0.199
  WS02006234           JUNCTION      0.00   524.29     0  07:22           0        7.92       0.085
  WS02006235           JUNCTION      0.00   523.68     0  06:56           0        7.99       0.117
  WS02006238           JUNCTION      0.00   413.28     0  05:50           0        4.52       0.153
  WS02006240           JUNCTION      0.00   412.40     0  05:50           0        4.48       0.236
  WS02006242           JUNCTION      0.00   412.52     0  05:50           0        4.47       0.291
  WS02006243           JUNCTION      0.00   412.57     0  05:50           0        4.46       0.130
  WS02006245           JUNCTION      0.00   412.93     0  05:50           0        4.46       0.237
  WS02006247           JUNCTION      0.00   412.84     0  05:50           0        4.47       0.147
  WS02006248           JUNCTION      0.00   412.64     0  05:50           0        4.47       0.098
  WS02006249           JUNCTION      0.00   447.29     0  03:10           0        4.91       0.183
  WS02006239           JUNCTION      0.00   412.57     0  05:50           0         4.5       0.122
  WS02006251           JUNCTION      0.08   446.77     0  03:10     0.00217        4.96       0.161
  WS02006252           JUNCTION      0.00   400.00     0  03:30           0         4.5       0.009
  WS02006253           JUNCTION      1.99   134.59     0  07:20     0.00928       0.464       0.735
  WS02006256           JUNCTION      0.00   983.00     0  02:10           0        10.2      -0.009
  WS02004138           JUNCTION      0.00   380.00     0  00:00           0          10       0.063
  WS02004139           JUNCTION      0.32   395.85     0  00:00     0.00905          10       0.460
  WS02004407           JUNCTION      0.00   831.65     0  03:03           0        10.2       0.077
  WS02006228           JUNCTION      0.00   817.66     0  03:02           0        10.3       0.147
  WS02006229           JUNCTION      0.00   818.73     0  03:02           0        10.3       0.130
  WS02006280           JUNCTION      0.00   413.65     0  03:02           0        2.17       0.007
  WS02006284           JUNCTION      0.10   413.60     0  03:02      0.0027        2.17       0.042
  WS02006287           JUNCTION      0.00   413.25     0  03:01           0        2.17       0.033
  WSF200               JUNCTION      0.00   828.11     0  03:05           0          10       0.047
  HS02004901           JUNCTION     20.36    20.36     0  03:01      0.0902      0.0904       1.990
  HS02004881           JUNCTION      7.95    84.19     0  03:01      0.0378        0.41       0.112
  HS02004876           JUNCTION     14.96    76.75     0  03:01      0.0728       0.373       0.148
  HS02004870           JUNCTION     14.89    62.15     0  03:01      0.0716         0.3       0.037
  HS02004862           JUNCTION     15.28    47.68     0  03:01      0.0788       0.229       0.076
  HS02004856           JUNCTION     11.18    32.72     0  03:01      0.0539       0.152       0.960
  HS02004852           JUNCTION      0.00    21.94     0  03:01           0      0.0979       0.059
  HS02004848           JUNCTION     34.61    34.61     0  03:01       0.174       0.174       0.028
  HS02004842           JUNCTION      0.00    12.41     0  03:01           0      0.0895      16.997
  HS02004837           JUNCTION     31.84    43.95     0  03:01       0.303        0.38       0.214
  HS02004830           JUNCTION      0.15    43.86     0  03:01     0.00423        0.37       0.335
  HS02004824           JUNCTION     42.39    85.90     0  03:01       0.225       0.594       0.091
  HS02004817           JUNCTION      0.60    86.29     0  03:01      0.0169        0.61       2.809
  HS02004807           JUNCTION     27.35   112.31     0  03:01       0.131       0.726       0.605
  HS02004802           JUNCTION      0.00   111.38     0  03:01           0       0.723       0.548
  HS02004799           JUNCTION     22.08   258.95     0  03:01       0.107        1.24       0.223
  HS02004792           JUNCTION    102.90   238.00     0  03:01        0.47        1.14       0.036
  HS02004788           JUNCTION     34.16   135.93     0  03:01       0.199       0.669       0.059
  HS02004785           JUNCTION      0.15   103.52     0  03:01     0.00423       0.471       0.106
  HS02004777           JUNCTION      0.03   104.16     0  03:01    0.000846       0.472       1.115
  HS02004770           JUNCTION     85.35   105.11     0  03:01       0.385       0.473       0.659
  HS02004480           JUNCTION      0.00   302.47     0  03:01           0        1.46       0.076
  HS02004479           JUNCTION      0.00    44.91     0  03:02           0       0.232       0.317
  HS02004478           JUNCTION      0.00   413.12     0  03:01           0        2.17       0.014
  YS02001745           JUNCTION    336.84   417.78     0  02:26        2.69         2.7       0.369
  YS02001748           JUNCTION      0.04   583.60     0  02:26     0.00127        2.69       0.803
  YS02001751           JUNCTION      0.01   342.41     0  03:01     0.00031        2.66       0.894
  YS02001754           JUNCTION      0.26   343.34     0  03:01     0.00733        2.64       0.947
  YS02001762           JUNCTION      0.00   291.17     0  02:38           0        1.96       1.086
  YS02001765           JUNCTION      0.00   292.45     0  02:38           0        1.96       1.256
  YS02001767           JUNCTION      0.54   292.73     0  02:38      0.0151        1.98       1.825
  YS02001770           JUNCTION    415.94   563.97     0  03:01        3.01        3.25       0.972
  YS02001774           JUNCTION      0.00   564.84     0  03:01           0        1.49       1.699
  YS02001779           JUNCTION      0.01   564.33     0  03:01    0.000141        1.45       1.063
  YS02001882           JUNCTION      0.00    43.16     0  02:36           0      0.0208      12.567
  YS02001884           JUNCTION      0.00    74.88     0  02:36           0      0.0577      12.005
  YS02001759           JUNCTION    399.49   572.87     0  02:38        2.78        4.47       0.511
  YS02001887           JUNCTION    494.68   494.68     0  03:01        3.19        3.22       0.268
  YS02001890           JUNCTION      0.00   495.59     0  03:01           0        3.18       0.294
  YS02001898           JUNCTION      0.00   495.38     0  03:01           0        3.16       0.101
  YS02001901           JUNCTION      0.00   495.91     0  03:01           0        3.16       0.221
  YS02001904           JUNCTION      0.00   496.10     0  03:01           0        3.16       0.205
  YS02001907           JUNCTION      0.00   943.64     0  03:01           0        7.02       0.350
  YS02001910           JUNCTION      0.00   451.27     0  03:00           0        3.87       0.312
  YS02001915           JUNCTION    296.36   450.90     0  03:00        2.25         3.9       0.156
  YS02001918           JUNCTION      0.00   212.58     0  03:30           0        1.66       0.120
  YS02001619           JUNCTION    290.53   290.53     0  03:01        2.24        2.24       0.550
  YS02001629           JUNCTION      0.00   198.97     0  02:17           0        1.69       1.730
  YS02001641           JUNCTION      0.00   398.98     0  02:34           0        4.25       0.500
  YS02001644           JUNCTION    321.01  1354.47     0  03:00        2.59        9.65       0.274
  YS02001652           JUNCTION      0.00   377.21     0  03:00           0        2.36       0.992
  YS02001655           JUNCTION      0.15   376.46     0  03:00     0.00434        2.38       1.051
  YS02001920           JUNCTION      2.87   210.87     0  02:46      0.0809        1.64       0.185
  YS02001923           JUNCTION      0.04   230.42     0  02:47     0.00106        1.56       0.050
  YS02001926           JUNCTION      0.05   184.57     0  02:46     0.00147        1.56       0.210
  YS02001929           JUNCTION    151.13   151.13     0  03:01        1.56        1.56       0.036
  YS02001658           JUNCTION      0.00   605.06     0  02:23           0        2.42       0.945
  YS02001661           JUNCTION      0.00   625.63     0  02:42           0        2.95      -0.740
  YS02001664           JUNCTION    361.21   361.21     0  03:01        2.38        2.94       0.203
  YS02001622           JUNCTION      0.00   291.13     0  03:01           0        2.22       1.447
  YS02001633           JUNCTION    326.74   396.80     0  02:35        2.66        4.31       0.750
  YS02001649           JUNCTION      0.00   826.64     0  02:35           0        5.52       0.674
  YS02001757           JUNCTION      0.00  1578.64     0  02:35           0        9.44       0.977
  YS02001895           JUNCTION      0.00   494.88     0  03:01           0        3.17       0.166
  YS02001625           JUNCTION      0.00   290.80     0  03:01           0        2.19       1.803
  YS02163301           JUNCTION      0.00   205.45     0  02:27           0        1.67       1.457
  YS02163601           JUNCTION      0.11   397.33     0  02:34      0.0031        4.27       0.712
  YS02164001           JUNCTION      0.00   397.69     0  02:35           0        4.25       0.473
  YS02001647           JUNCTION      0.00   652.01     0  03:00           0        4.69       0.602
  YSB1154              JUNCTION     26.18    26.18     0  03:01       0.129        0.13       1.130
  YSB6556              JUNCTION      0.00    25.83     0  03:01           0        0.13       0.969
  YSB1174              JUNCTION     20.52    20.52     0  03:01      0.0948      0.0953       1.368
  YSB1171              JUNCTION      0.00    45.31     0  03:01           0       0.231       2.820
  YS02006553           JUNCTION      0.00   703.59     0  03:31           0        6.56       0.239
  YS02006561           JUNCTION      0.00   982.38     0  03:00           0        9.44       0.006
  YS02006556           JUNCTION      0.00   703.50     0  03:31           0        6.57       0.176
  YS02006558           JUNCTION    433.40   983.43     0  02:59        2.93        9.47       0.056
  YS02001783           JUNCTION      0.00   982.79     0  03:00           0        9.44       0.027
  YS02001784           JUNCTION      1.06   983.57     0  02:59      0.0299        9.47       0.039
  YS02001786           JUNCTION      0.06   983.62     0  03:00     0.00159        9.47       0.038
  YS02001788           JUNCTION      0.07   983.50     0  03:00       0.002        9.47       0.025
  YS02001790           JUNCTION      0.15   983.98     0  03:00     0.00437        9.47       0.019
  YS02001791           JUNCTION      0.00   983.58     0  03:00           0        9.47       0.016
  YS02001793           JUNCTION      0.00   983.99     0  03:00           0        9.49      -0.005
  WSC                  OUTFALL       0.00  1219.25     0  03:09           0        20.4       0.000
  JK-storage           STORAGE       0.00  1135.08     0  02:04           0        9.64     -12.466
  CC-storage           STORAGE       0.00  1579.37     0  02:35           0        7.97       0.776
  XR-storage           STORAGE     844.76   844.76     0  03:01        11.8        12.4      -0.000
  
  
  **********************
  Node Surcharge Summary
  **********************
  
  Surcharging occurs when water rises above the top of the highest conduit.
  ---------------------------------------------------------------------
                                               Max. Height   Min. Depth
                                   Hours       Above Crown    Below Rim
  Node                 Type      Surcharged         Meters       Meters
  ---------------------------------------------------------------------
  WS02004401           JUNCTION        0.30          0.139        1.521
  WS02004402           JUNCTION        0.36          0.137        1.603
  WS02004403           JUNCTION        0.37          0.126        1.904
  WS02004404           JUNCTION        0.79          0.178        2.602
  WS02004406           JUNCTION        0.48          0.116        2.334
  WS02004405           JUNCTION        0.62          0.156        2.644
  WS02006109           JUNCTION        4.24          0.489        1.331
  WS02006110           JUNCTION        2.38          0.244        1.606
  WS02006112           JUNCTION        2.88          0.417        1.263
  WS02006115           JUNCTION        0.16          0.080        2.170
  WS02006116           JUNCTION        0.18          0.085        2.205
  WS02006230           JUNCTION        1.89          0.440        1.130
  WS02006231           JUNCTION        2.27          0.506        1.024
  WS02006232           JUNCTION        4.01          0.662        0.818
  WS02006234           JUNCTION        3.02          0.602        0.638
  WS02006235           JUNCTION        3.43          0.658        0.632
  WS02006238           JUNCTION        3.56          0.671        0.759
  WS02006240           JUNCTION        2.83          0.570        0.820
  WS02006242           JUNCTION        2.98          0.608        0.212
  WS02006243           JUNCTION        2.54          0.500        0.270
  WS02006245           JUNCTION        2.38          0.459        0.391
  WS02006247           JUNCTION        2.39          0.457        0.303
  WS02006248           JUNCTION        2.17          0.375        0.005
  WS02006249           JUNCTION        2.21          0.390        0.000
  WS02006239           JUNCTION        3.00          0.608        0.682
  WS02006251           JUNCTION        1.53          0.241        0.939
  WS02006252           JUNCTION        2.45          0.430        0.670
  WS02006253           JUNCTION        1.58          0.419        2.061
  WS02006256           JUNCTION        6.88          2.050        0.000
  WS02006228           JUNCTION        4.20          0.609        1.591
  YS02001748           JUNCTION        5.31          0.509        0.681
  YS02001751           JUNCTION        5.48          0.711        0.489
  YS02001754           JUNCTION        5.70          0.790        0.360
  YS02001762           JUNCTION        5.87          1.037        0.113
  YS02001765           JUNCTION        5.84          0.986        0.114
  YS02001767           JUNCTION        5.81          0.942        0.088
  YS02001770           JUNCTION        5.80          0.897        0.023
  YS02001774           JUNCTION        5.86          0.981        0.069
  YS02001779           JUNCTION        5.68          0.680        0.000
  YS02001882           JUNCTION        0.90          0.618        0.212
  YS02001884           JUNCTION        0.93          0.659        0.211
  YS02001759           JUNCTION        5.89          1.081        0.129
  YS02001887           JUNCTION        0.99          0.746        0.204
  YS02001890           JUNCTION        1.02          0.760        0.000
  YS02001898           JUNCTION        0.86          0.529        0.211
  YS02001901           JUNCTION        0.96          0.674        0.196
  YS02001904           JUNCTION        0.94          0.636        0.214
  YS02001907           JUNCTION        1.78          0.950        0.000
  YS02001910           JUNCTION        1.06          0.779        0.321
  YS02001915           JUNCTION        0.89          0.585        0.415
  YS02001918           JUNCTION        0.71          0.265        0.545
  YS02001619           JUNCTION        5.47          0.610        0.000
  YS02001629           JUNCTION        5.49          0.470        0.000
  YS02001641           JUNCTION        5.85          0.935        0.165
  YS02001644           JUNCTION        5.85          0.920        0.000
  YS02001652           JUNCTION        5.73          1.049        0.081
  YS02001655           JUNCTION        5.50          1.071        0.129
  YS02001920           JUNCTION        0.74          0.338        0.802
  YS02001658           JUNCTION        5.34          1.037        0.263
  YS02001661           JUNCTION        0.25          0.860        0.530
  YS02001622           JUNCTION        5.51          0.620        0.000
  YS02001633           JUNCTION        5.83          0.928        0.132
  YS02001649           JUNCTION        5.87          1.050        0.000
  YS02001757           JUNCTION        5.98          1.181        0.029
  YS02001895           JUNCTION        0.88          0.564        0.186
  YS02001625           JUNCTION        5.76          0.780        0.000
  YS02163301           JUNCTION        5.81          0.902        0.128
  YS02163601           JUNCTION        5.87          0.994        0.086
  YS02164001           JUNCTION        5.84          0.924        0.176
  YS02001647           JUNCTION        5.75          0.801        0.099
  YS02006553           JUNCTION        1.89          0.965        0.225
  YS02006561           JUNCTION        0.76          0.281        0.869
  YS02006556           JUNCTION        1.31          0.881        0.469
  YS02006558           JUNCTION        1.26          0.863        0.537
  YS02001783           JUNCTION        1.04          0.670        0.930
  YS02001784           JUNCTION        1.02          0.682        0.808
  YS02001786           JUNCTION        0.96          0.773        0.657
  YS02001788           JUNCTION        0.91          0.789        0.691
  YS02001790           JUNCTION        1.62          1.157        0.000
  YS02001791           JUNCTION        1.72          1.423        0.497
  YS02001793           JUNCTION        1.99          1.036        1.564
  
  
  *********************
  Node Flooding Summary
  *********************
  
  Flooding refers to all water that overflows a node, whether it ponds or not.
  --------------------------------------------------------------------------
                                                             Total   Maximum
                                 Maximum   Time of Max       Flood    Ponded
                        Hours       Rate    Occurrence      Volume     Depth
  Node                 Flooded       LPS   days hr:min    10^6 ltr    Meters
  --------------------------------------------------------------------------
  WS02006249              1.47    185.34      0  03:10       0.433     0.000
  WS02006256              4.23    810.32      0  03:02       6.628     0.000
  YS02001779              2.82    564.29      0  03:01       1.434     0.000
  YS02001890              0.01      1.25      0  03:01       0.000     0.000
  YS02001907              0.58    394.86      0  03:01       0.442     0.000
  YS02001619              0.01     18.54      0  02:27       0.000     0.000
  YS02001629              0.01     29.97      0  02:27       0.000     0.000
  YS02001644              3.96   1353.74      0  03:01       7.770     0.000
  YS02001622              0.01     17.41      0  02:27       0.000     0.000
  YS02001649              0.04     33.66      0  03:51       0.002     0.000
  YS02001625              1.22    236.11      0  03:01       0.464     0.000
  YS02001790              0.01    192.38      0  04:43       0.000     0.000
  JK-storage              0.67    815.44      0  02:40       0.781     0.000
  XR-storage              2.98    464.70      0  03:01       1.760     0.000
  
  
  **********************
  Storage Volume Summary
  **********************
  
  --------------------------------------------------------------------------------------------------
                         Average     Avg  Evap Exfil       Maximum     Max    Time of Max    Maximum
                          Volume    Pcnt  Pcnt  Pcnt        Volume    Pcnt     Occurrence    Outflow
  Storage Unit           1000 m3    Full  Loss  Loss       1000 m3    Full    days hr:min        LPS
  --------------------------------------------------------------------------------------------------
  JK-storage               0.131      45     0     0         0.291     100       0  02:34     983.00
  CC-storage               3.240      21     0     0         3.905      25       0  03:03     400.00
  XR-storage               0.789      85     0     0         0.926     100       0  02:59     380.00
  
  
  ***********************
  Outfall Loading Summary
  ***********************
  
  ---------------------------------------------------------------------------------------------------------------------------------
                         Flow       Avg       Max       Total         Total         Total         Total         Total         Total
                         Freq      Flow      Flow      Volume           COD            SS            TN            TP         NH4-N
  Outfall Node           Pcnt       LPS       LPS    10^6 ltr            kg            kg            kg            kg            kg
  ---------------------------------------------------------------------------------------------------------------------------------
  WSC                   99.98    801.59   1219.25      20.444      2369.917      4050.871       153.256        18.055        92.824
  ---------------------------------------------------------------------------------------------------------------------------------
  System                99.98    801.59   1219.25      20.444      2369.917      4050.871       153.256        18.055        92.824
  
  
  ********************
  Link Flow Summary
  ********************
  
  -----------------------------------------------------------------------------
                                 Maximum  Time of Max   Maximum    Max/    Max/
                                  |Flow|   Occurrence   |Veloc|    Full    Full
  Link                 Type          LPS  days hr:min     m/sec    Flow   Depth
  -----------------------------------------------------------------------------
  WS02003066WSF200     CONDUIT    828.11     0  03:05      2.94    0.14    0.30
  WS02006287WS02006284 CONDUIT    413.50     0  03:02      2.04    0.19    0.30
  WS02006284WS02006280 CONDUIT    413.65     0  03:02      2.28    0.17    0.28
  WS02006280WS02006229 CONDUIT    413.65     0  03:02      3.63    0.09    0.25
  WS02006229WS02006228 CONDUIT    817.66     0  03:02      1.63    2.71    1.00
  WS02006256WS02006235 CONDUIT    288.92     0  00:00      4.23    3.06    1.00
  WS02006253WS02006251 CONDUIT    134.11     0  07:20      0.60    0.40    1.00
  WS02006252WS02006251 CONDUIT    404.26     0  07:21      3.22    1.48    1.00
  WS02006251WS02006249 CONDUIT    447.29     0  03:10      1.16    1.29    1.00
  WS02006249WS02006248 CONDUIT    412.64     0  05:50      1.14    2.26    1.00
  WS02006248WS02006247 CONDUIT    412.84     0  05:50      1.11    0.90    1.00
  WS02006247WS02006245 CONDUIT    412.93     0  05:50      1.08    3.27    1.00
  WS02006245WS02006243 CONDUIT    412.57     0  05:50      1.09    1.22    1.00
  WS02006243WS02006242 CONDUIT    412.52     0  05:50      1.07    0.88    1.00
  WS02006242WS02006240 CONDUIT    412.40     0  05:50      1.07    1.64    1.00
  WS02006240WS02006239 CONDUIT    412.57     0  05:50      1.07    1.30    1.00
  WS02006239WS02006238 CONDUIT    413.28     0  05:50      1.07    1.32    1.00
  WS02006238WS02006235 CONDUIT    415.50     0  05:50      1.45    0.93    1.00
  WS02006235WS02006234 CONDUIT    524.29     0  07:22      1.36    5.53    1.00
  WS02006234WS02006232 CONDUIT    524.48     0  07:22      1.39    1.06    1.00
  WS02006232WS02006231 CONDUIT    524.53     0  07:22      1.36    1.10    1.00
  WS02006231WS02006230 CONDUIT    524.16     0  07:22      1.36    7.95    1.00
  WS02006230WS02006229 CONDUIT    535.46     0  07:23      1.39   11.92    1.00
  WS02006228WS02006109 CONDUIT    817.61     0  03:02      1.63    3.57    1.00
  WS02006116WS02004401 CONDUIT    831.98     0  03:03      1.06    1.15    1.00
  WS02006115WS02006116 CONDUIT    831.51     0  03:03      1.06    1.07    1.00
  WS02006113WS02006111 CONDUIT    817.44     0  03:03      2.59    0.98    0.81
  WS02006112WS02006115 CONDUIT    831.43     0  03:03      1.06    0.49    1.00
  WS02006111WS02006112 CONDUIT    819.19     0  03:03      1.73    0.39    0.90
  WS02006110WS02006113 CONDUIT    818.77     0  03:02      1.74    0.74    0.91
  WS02006109WS02006110 CONDUIT    818.92     0  03:02      1.63    1.57    1.00
  WS02004411WS02004412 CONDUIT    827.54     0  03:04      1.16    1.18    0.85
  WS02004401WS02004402 CONDUIT    832.40     0  03:03      1.06    1.00    1.00
  WS02004413WS02003067 CONDUIT    827.66     0  03:05      1.42    0.35    0.70
  WS02004412WS02004413 CONDUIT    827.58     0  03:05      1.10    0.55    0.91
  WS02004410WS02004411 CONDUIT    827.94     0  03:04      1.15    1.13    0.86
  WS02004409WS02004410 CONDUIT    829.02     0  03:04      1.15    1.07    0.87
  WS02004407WS02004409 CONDUIT    831.35     0  03:03      1.64    0.29    0.62
  WS02004406WS02004407 CONDUIT    831.65     0  03:03      1.45    0.37    0.69
  WS02004405WS02004406 CONDUIT    831.73     0  03:03      1.10    1.64    1.00
  WS02004404WS02004405 CONDUIT    833.06     0  03:03      1.15    8.16    1.00
  WS02004403WS02004404 CONDUIT    832.13     0  03:03      1.06    0.60    1.00
  WS02004402WS02004403 CONDUIT    831.65     0  03:03      1.06    1.19    1.00
  WS02004139WS02001211 CONDUIT    382.29     0  04:40      0.90    0.48    0.63
  WS02004138WS02004139 CONDUIT    395.52     0  00:00      3.64    0.08    0.46
  WS02003067WS02003066 CONDUIT    827.99     0  03:05      1.54    0.27    0.48
  WS02001213WS02003059 CONDUIT    397.98     0  04:40      0.89    0.66    0.84
  WS02001212WS02001213 CONDUIT    394.24     0  04:40      1.32    0.61    0.53
  WS02001211WS02001212 CONDUIT    391.94     0  04:40      0.78    0.30    0.69
  WS02003072WS02003073 CONDUIT   1217.02     0  03:08      1.90    2.63    0.55
  WS02003069WS02003072 CONDUIT   1216.83     0  03:07      1.76    0.59    0.59
  WS02003060WS02003069 CONDUIT   1216.53     0  03:07      1.98    0.48    0.53
  WS02003059WS02003060 CONDUIT    403.18     0  04:39      0.95    0.26    0.74
  HS02004901HS02004770 CONDUIT     20.53     0  03:01      0.07    0.08    0.42
  HS02004876HS02004881 CONDUIT     76.55     0  03:01      0.95    0.81    0.12
  HS02004870HS02004876 CONDUIT     61.91     0  03:01      0.65    0.04    0.14
  HS02004842HS02004848 CONDUIT     12.41     0  03:01      0.06    0.01    0.31
  HS02004837HS02004842 CONDUIT     12.98     0  03:02      0.42    0.01    0.32
  HS02004830HS02004837 CONDUIT     43.71     0  03:01      0.57    0.04    0.11
  HS02004824HS02004830 CONDUIT     43.67     0  03:01      0.59    0.06    0.11
  HS02004817HS02004824 CONDUIT     85.69     0  03:01      0.26    0.04    0.48
  HS02004770HS02004777 CONDUIT    104.13     0  03:01      0.35    0.19    0.43
  HS02004799HS02004480 CONDUIT    258.32     0  03:01      0.83    0.33    0.44
  HS02004792HS02004799 CONDUIT    237.06     0  03:01      0.95    0.15    0.36
  HS02004788HS02004792 CONDUIT    135.44     0  03:01      1.06    0.09    0.18
  HS02004785HS02004788 CONDUIT    103.22     0  03:02      0.71    0.78    0.21
  HS02004777HS02004785 CONDUIT    103.37     0  03:01      0.42    0.13    0.35
  HS02004480HS02004478 CONDUIT    302.31     0  03:01      1.26    1.27    0.34
  HS02004479HS02004480 CONDUIT     46.29     0  03:02      0.32    0.04    0.43
  HS02004862HS02004870 CONDUIT     47.43     0  03:01      0.66    0.05    0.10
  HS02004848HS02004852 CONDUIT     21.94     0  03:01      0.45    0.02    0.07
  HS02004856HS02004862 CONDUIT     32.48     0  03:01      0.48    0.03    0.10
  HS02004852HS02004856 CONDUIT     21.85     0  03:02      0.25    0.02    0.13
  HS02004802HS02004478 CONDUIT    111.53     0  03:02      0.45    0.10    0.36
  HS02004478WS02006287 CONDUIT    413.25     0  03:01      1.75    0.12    0.26
  HS02004817HS02004807 CONDUIT     86.15     0  03:01      0.19    0.05    0.63
  HS02004807HS02004802 CONDUIT    111.38     0  03:01      0.38    0.21    0.42
  YS02001759YS02001757 CONDUIT    573.79     0  02:38      0.73    0.41    1.00
  YS02001762YS02001759 CONDUIT    292.57     0  02:28      0.37    0.34    1.00
  YS02001765YS02001762 CONDUIT    291.17     0  02:38      0.37    0.27    1.00
  YS02001770YS02001767 CONDUIT    292.19     0  02:38      0.37    1.16    1.00
  YS02001774YS02001770 CONDUIT    564.84     0  03:01      0.72    0.36    1.00
  YS02001779YS02001774 CONDUIT    564.33     0  03:01      0.72    0.28    1.00
  YS02001649YS02001757 CONDUIT    828.25     0  02:35      1.05    0.50    1.00
  YS02001767YS02001765 CONDUIT    292.45     0  02:38      0.37    0.37    1.00
  YS02006561YS02001783 CONDUIT    982.79     0  03:00      2.15    0.51    1.00
  YS02001783YS02001784 CONDUIT    982.51     0  02:59      1.95    1.35    1.00
  YS02001784YS02001785 CONDUIT    983.56     0  03:00      1.96    2.29    1.00
  YS02001788YS02001790 CONDUIT    983.82     0  03:00      2.44    0.73    1.00
  YS02001790YS02001791 CONDUIT    983.58     0  03:00      2.88    1.07    1.00
  YS02001791YS02001793 CONDUIT    983.99     0  03:00      5.76    0.42    1.00
  YS02001910YS02001907 CONDUIT    451.18     0  03:00      0.57    0.25    1.00
  YS02001786YS02001788 CONDUIT    983.43     0  03:00      2.31    1.89    1.00
  YS02001915YS02001910 CONDUIT    451.27     0  03:00      0.59    0.22    1.00
  YS02001918YS02001915 CONDUIT    246.31     0  03:31      0.44    0.14    1.00
  YS02001923YS02001920 CONDUIT    208.00     0  02:46      0.72    0.09    1.00
  YS02001926YS02001923 CONDUIT    230.38     0  02:47      0.83    0.33    0.89
  YS02001929YS02001926 CONDUIT    184.51     0  02:46      0.89    0.09    0.79
  YS02001920YS02001918 CONDUIT    212.58     0  03:30      0.70    0.21    1.00
  YS02001629YS02163301 CONDUIT    205.45     0  02:27      0.26    0.25    1.00
  YS02001619YS02001622 CONDUIT    291.13     0  03:01      0.61    0.43    1.00
  YS02001622YS02001625 CONDUIT    290.80     0  03:01      0.37    0.16    1.00
  YS02001625YS02001629 CONDUIT    198.97     0  02:17      0.26    0.09    1.00
  YS02163301YS02001633 CONDUIT    207.10     0  02:27      0.26    0.19    1.00
  YS02163601YS02164001 CONDUIT    397.69     0  02:35      0.51    0.35    1.00
  YS02164001YS02001641 CONDUIT    398.98     0  02:34      0.51    0.54    1.00
  YS02001641YS02001644 CONDUIT    399.28     0  02:34      0.51    1.29    1.00
  YS02001647YS02001649 CONDUIT    652.01     0  03:00      0.83    0.34    1.00
  YS02006553YS02006556 CONDUIT    703.50     0  03:31      0.90    0.60    1.00
  YS02006556YS02006558 CONDUIT    703.92     0  03:31      0.90    0.56    1.00
  YSB6556YSB1171       CONDUIT     25.76     0  03:03      0.09    0.03    0.70
  YS02001907YS02006553 CONDUIT    703.59     0  03:31      0.78    0.83    1.00
  YS02006558YS02006561 CONDUIT    982.38     0  03:00      3.47    2.17    1.00
  YS02001633YS02163601 CONDUIT    397.22     0  02:34      0.51    0.42    1.00
  YS02001644YS02001647 CONDUIT    652.69     0  03:01      0.83    0.38    1.00
  YS02001745YS02001748 CONDUIT    583.56     0  02:26      1.47    0.22    0.96
  YS02001748YS02001751 CONDUIT    342.40     0  03:01      1.06    0.17    1.00
  YS02001751YS02001754 CONDUIT    343.08     0  03:01      0.92    0.17    1.00
  YS02001754YS02001757 CONDUIT    342.48     0  03:01      0.44    0.14    1.00
  YS02001882YS02001884 CONDUIT     43.16     0  02:36      0.13    0.05    1.00
  YS02001884YS02001887 CONDUIT     74.88     0  02:36      0.10    0.10    1.00
  YS02001890YS02001895 CONDUIT    494.88     0  03:01      0.63    0.23    1.00
  YS02001895YS02001898 CONDUIT    495.38     0  03:01      0.63    0.86    1.00
  YS02001898YS02001901 CONDUIT    495.91     0  03:01      0.63    0.32    1.00
  YS02001901YS02001904 CONDUIT    496.10     0  03:01      0.63    0.77    1.00
  YS02001904YS02001907 CONDUIT    496.81     0  03:01      0.63    0.17    1.00
  YS02001887YS02001890 CONDUIT    495.59     0  03:01      0.63    0.85    1.00
  YS02001652YS02001649 CONDUIT    378.31     0  03:00      0.63    0.19    1.00
  YS02001655YS02001652 CONDUIT    377.21     0  03:00      0.98    0.18    1.00
  YS02001658YS02001655 CONDUIT    376.31     0  03:00      1.22    0.16    1.00
  YS02001661YS02001658 CONDUIT    605.06     0  02:23      1.55    0.24    1.00
  YS02001664YS02001661 CONDUIT    625.63     0  02:42      1.43    0.20    0.76
  YSB1154YSB6556       CONDUIT     25.83     0  03:01      0.17    0.05    0.59
  YSB1174YSB1171       CONDUIT     20.15     0  03:01      0.07    0.03    0.70
  YSB1171HS02004479    CONDUIT     44.91     0  03:02      0.54    0.03    0.55
  HS02004881HS02006253 CONDUIT     84.17     0  03:01      2.15    0.02    0.53
  YS02001793JiankangQianchi CONDUIT   1135.08     0  02:04     17.50    0.09    1.00
  YS02001757CaochengTiaoxuchi CONDUIT   1579.37     0  02:35      2.02    0.69    1.00
  WSF200WS02003060     CONDUIT    828.42     0  03:05      1.85    0.18    0.42
  1                    CONDUIT   1219.25     0  03:09      3.51    0.42    0.46
  CC-Pump-1            PUMP       200.00     0  03:00              1.00
  CC-Pump-2            PUMP       200.00     0  03:30              1.00
  JK-Pump-1            PUMP       300.00     0  00:00              1.00
  JK-Pump-2            PUMP       683.00     0  02:10              1.00
  XR-Pump-1            PUMP        95.00     0  00:00              1.00
  XR-Pump-2            PUMP        95.00     0  00:00              1.00
  XR-Pump-3            PUMP        95.00     0  00:00              1.00
  XR-Pump-4            PUMP        95.00     0  00:00              1.00
  
  
  ***************************
  Flow Classification Summary
  ***************************
  
  -------------------------------------------------------------------------------------
                      Adjusted    ---------- Fraction of Time in Flow Class ---------- 
                       /Actual         Up    Down  Sub   Sup   Up    Down  Norm  Inlet 
  Conduit               Length    Dry  Dry   Dry   Crit  Crit  Crit  Crit  Ltd   Ctrl  
  -------------------------------------------------------------------------------------
  WS02003066WSF200        1.00   0.01  0.02  0.00  0.00  0.97  0.00  0.00  0.52  0.00
  WS02006287WS02006284    1.00   0.03  0.01  0.00  0.67  0.29  0.00  0.00  0.62  0.00
  WS02006284WS02006280    1.00   0.04  0.00  0.00  0.00  0.00  0.00  0.96  0.00  0.00
  WS02006280WS02006229    1.00   0.04  0.00  0.00  0.00  0.01  0.00  0.95  0.02  0.00
  WS02006229WS02006228    1.00   0.00  0.00  0.00  1.00  0.00  0.00  0.00  0.00  0.00
  WS02006256WS02006235    1.00   0.00  0.00  0.00  1.00  0.00  0.00  0.00  0.00  0.00
  WS02006253WS02006251    1.00   0.02  0.01  0.00  0.96  0.00  0.01  0.00  0.00  0.00
  WS02006252WS02006251    1.00   0.17  0.00  0.00  0.17  0.00  0.66  0.00  0.00  0.00
  WS02006251WS02006249    1.00   0.00  0.00  0.00  1.00  0.00  0.00  0.00  0.20  0.00
  WS02006249WS02006248    1.00   0.00  0.01  0.00  0.92  0.00  0.07  0.00  0.00  0.00
  WS02006248WS02006247    1.00   0.01  0.00  0.00  0.99  0.00  0.00  0.00  0.14  0.00
  WS02006247WS02006245    1.00   0.00  0.00  0.00  0.99  0.00  0.00  0.00  0.00  0.00
  WS02006245WS02006243    1.00   0.00  0.00  0.00  0.97  0.00  0.00  0.03  0.00  0.00
  WS02006243WS02006242    1.00   0.00  0.00  0.00  1.00  0.00  0.00  0.00  0.21  0.00
  WS02006242WS02006240    1.00   0.00  0.00  0.00  1.00  0.00  0.00  0.00  0.00  0.00
  WS02006240WS02006239    1.00   0.00  0.00  0.00  0.96  0.00  0.00  0.04  0.01  0.00
  WS02006239WS02006238    1.00   0.00  0.00  0.00  1.00  0.00  0.00  0.00  0.12  0.00
  WS02006238WS02006235    1.00   0.00  0.00  0.00  1.00  0.00  0.00  0.00  0.00  0.00
  WS02006235WS02006234    1.00   0.00  0.00  0.00  0.97  0.00  0.03  0.00  0.00  0.00
  WS02006234WS02006232    1.00   0.00  0.00  0.00  1.00  0.00  0.00  0.00  0.08  0.00
  WS02006232WS02006231    1.00   0.00  0.00  0.00  1.00  0.00  0.00  0.00  0.00  0.00
  WS02006231WS02006230    1.00   0.00  0.00  0.00  0.75  0.00  0.25  0.00  0.00  0.00
  WS02006230WS02006229    1.00   0.00  0.00  0.00  1.00  0.00  0.00  0.00  0.00  0.00
  WS02006228WS02006109    1.00   0.00  0.00  0.00  1.00  0.00  0.00  0.00  0.00  0.00
  WS02006116WS02004401    1.00   0.01  0.00  0.00  0.99  0.00  0.00  0.00  0.00  0.00
  WS02006115WS02006116    1.00   0.01  0.00  0.00  0.99  0.00  0.00  0.00  0.00  0.00
  WS02006113WS02006111    1.00   0.01  0.00  0.00  0.02  0.98  0.00  0.00  0.15  0.00
  WS02006112WS02006115    1.00   0.01  0.00  0.00  0.99  0.00  0.00  0.00  0.00  0.00
  WS02006111WS02006112    1.00   0.01  0.00  0.00  0.99  0.00  0.00  0.00  0.90  0.00
  WS02006110WS02006113    1.00   0.00  0.00  0.00  0.99  0.00  0.00  0.00  0.00  0.00
  WS02006109WS02006110    1.00   0.00  0.00  0.00  0.99  0.00  0.00  0.00  0.00  0.00
  WS02004411WS02004412    1.00   0.02  0.00  0.00  0.98  0.00  0.00  0.00  0.00  0.00
  WS02004401WS02004402    1.00   0.01  0.00  0.00  0.99  0.00  0.00  0.00  0.00  0.00
  WS02004413WS02003067    1.00   0.02  0.01  0.00  0.00  0.00  0.98  0.00  0.00  0.00
  WS02004412WS02004413    1.00   0.02  0.00  0.00  0.98  0.00  0.00  0.00  0.01  0.00
  WS02004410WS02004411    1.00   0.02  0.00  0.00  0.98  0.00  0.00  0.00  0.00  0.00
  WS02004409WS02004410    1.00   0.02  0.00  0.00  0.98  0.00  0.00  0.00  0.02  0.00
  WS02004407WS02004409    1.00   0.01  0.00  0.00  0.98  0.00  0.00  0.00  0.95  0.00
  WS02004406WS02004407    1.00   0.00  0.01  0.00  0.99  0.00  0.00  0.00  0.00  0.00
  WS02004405WS02004406    1.00   0.00  0.00  0.00  1.00  0.00  0.00  0.00  0.00  0.00
  WS02004404WS02004405    1.00   0.00  0.00  0.00  1.00  0.00  0.00  0.00  0.00  0.00
  WS02004403WS02004404    1.00   0.00  0.01  0.00  0.99  0.00  0.00  0.00  0.00  0.00
  WS02004402WS02004403    1.00   0.01  0.00  0.00  0.99  0.00  0.00  0.00  0.00  0.00
  WS02004139WS02001211    1.00   0.00  0.00  0.00  1.00  0.00  0.00  0.00  0.00  0.00
  WS02004138WS02004139    1.00   0.00  0.00  0.00  1.00  0.00  0.00  0.00  1.00  0.00
  WS02003067WS02003066    1.00   0.02  0.00  0.00  0.97  0.00  0.00  0.00  0.00  0.00
  WS02001213WS02003059    1.00   0.00  0.00  0.00  1.00  0.00  0.00  0.00  0.00  0.00
  WS02001212WS02001213    1.00   0.00  0.00  0.00  0.93  0.00  0.07  0.00  0.00  0.00
  WS02001211WS02001212    1.00   0.00  0.00  0.00  1.00  0.00  0.00  0.00  0.00  0.00
  WS02003072WS02003073    1.00   0.00  0.00  0.00  0.00  0.00  0.00  1.00  0.00  0.00
  WS02003069WS02003072    1.00   0.00  0.00  0.00  1.00  0.00  0.00  0.00  0.11  0.00
  WS02003060WS02003069    1.00   0.00  0.00  0.00  0.99  0.01  0.00  0.00  0.08  0.00
  WS02003059WS02003060    1.00   0.00  0.00  0.00  1.00  0.00  0.00  0.00  0.01  0.00
  HS02004901HS02004770    1.00   0.03  0.00  0.00  0.97  0.00  0.00  0.00  0.00  0.00
  HS02004876HS02004881    1.00   0.01  0.00  0.00  0.93  0.06  0.00  0.00  0.00  0.00
  HS02004870HS02004876    1.00   0.00  0.00  0.00  0.99  0.00  0.00  0.00  0.95  0.00
  HS02004842HS02004848    1.00   0.00  0.03  0.00  0.96  0.00  0.00  0.00  0.55  0.00
  HS02004837HS02004842    1.00   0.00  0.00  0.00  1.00  0.00  0.00  0.00  0.11  0.00
  HS02004830HS02004837    1.00   0.00  0.00  0.00  1.00  0.00  0.00  0.00  0.99  0.00
  HS02004824HS02004830    1.00   0.00  0.00  0.00  1.00  0.00  0.00  0.00  0.00  0.00
  HS02004817HS02004824    1.00   0.00  0.00  0.00  1.00  0.00  0.00  0.00  1.00  0.00
  HS02004770HS02004777    1.00   0.00  0.03  0.00  0.97  0.00  0.00  0.00  0.02  0.00
  HS02004799HS02004480    1.00   0.00  0.01  0.00  0.96  0.00  0.03  0.00  0.00  0.00
  HS02004792HS02004799    1.00   0.00  0.00  0.00  1.00  0.00  0.00  0.00  0.98  0.00
  HS02004788HS02004792    1.00   0.00  0.00  0.00  1.00  0.00  0.00  0.00  0.98  0.00
  HS02004785HS02004788    1.00   0.00  0.00  0.00  1.00  0.00  0.00  0.00  0.00  0.00
  HS02004777HS02004785    1.00   0.00  0.00  0.00  1.00  0.00  0.00  0.00  0.12  0.00
  HS02004480HS02004478    1.00   0.04  0.00  0.00  0.72  0.00  0.00  0.25  0.00  0.00
  HS02004479HS02004480    1.00   0.01  0.00  0.00  0.99  0.00  0.00  0.00  0.11  0.00
  HS02004862HS02004870    1.00   0.00  0.00  0.00  1.00  0.00  0.00  0.00  0.03  0.00
  HS02004848HS02004852    1.00   0.04  0.00  0.00  0.96  0.00  0.00  0.00  0.62  0.00
  HS02004856HS02004862    1.00   0.00  0.04  0.00  0.96  0.00  0.00  0.00  0.83  0.00
  HS02004852HS02004856    1.00   0.03  0.00  0.00  0.96  0.00  0.00  0.00  0.85  0.00
  HS02004802HS02004478    1.00   0.04  0.00  0.00  0.96  0.00  0.00  0.00  0.02  0.00
  HS02004478WS02006287    1.00   0.04  0.00  0.00  0.79  0.17  0.00  0.00  0.64  0.00
  HS02004817HS02004807    1.00   0.00  0.03  0.00  0.97  0.00  0.00  0.00  0.01  0.00
  HS02004807HS02004802    1.00   0.03  0.00  0.00  0.96  0.00  0.00  0.00  0.00  0.00
  YS02001759YS02001757    1.00   0.00  0.00  0.00  1.00  0.00  0.00  0.00  0.16  0.00
  YS02001762YS02001759    1.00   0.00  0.00  0.00  1.00  0.00  0.00  0.00  0.03  0.00
  YS02001765YS02001762    1.00   0.00  0.00  0.00  1.00  0.00  0.00  0.00  0.13  0.00
  YS02001770YS02001767    1.00   0.00  0.00  0.00  1.00  0.00  0.00  0.00  0.00  0.00
  YS02001774YS02001770    1.00   0.00  0.04  0.00  0.96  0.00  0.00  0.00  0.03  0.00
  YS02001779YS02001774    1.00   0.00  0.00  0.00  1.00  0.00  0.00  0.00  0.18  0.00
  YS02001649YS02001757    1.00   0.00  0.00  0.00  1.00  0.00  0.00  0.00  0.16  0.00
  YS02001767YS02001765    1.00   0.00  0.00  0.00  1.00  0.00  0.00  0.00  0.00  0.00
  YS02006561YS02001783    1.00   0.05  0.00  0.00  0.30  0.65  0.00  0.00  0.46  0.00
  YS02001783YS02001784    1.00   0.00  0.05  0.00  0.95  0.00  0.00  0.00  0.01  0.00
  YS02001784YS02001785    1.00   0.00  0.00  0.00  1.00  0.00  0.00  0.00  0.17  0.00
  YS02001788YS02001790    1.00   0.00  0.00  0.00  0.36  0.64  0.00  0.00  0.39  0.00
  YS02001790YS02001791    1.00   0.00  0.00  0.00  0.33  0.67  0.00  0.00  0.50  0.00
  YS02001791YS02001793    1.00   0.00  0.00  0.00  0.37  0.63  0.00  0.00  0.03  0.00
  YS02001910YS02001907    1.00   0.00  0.00  0.00  0.99  0.00  0.00  0.01  0.12  0.00
  YS02001786YS02001788    1.00   0.00  0.00  0.00  0.34  0.66  0.00  0.00  0.00  0.00
  YS02001915YS02001910    1.00   0.00  0.00  0.00  0.99  0.01  0.00  0.00  0.15  0.00
  YS02001918YS02001915    1.00   0.00  0.00  0.00  0.99  0.01  0.00  0.00  0.55  0.00
  YS02001923YS02001920    1.00   0.00  0.00  0.00  1.00  0.00  0.00  0.00  0.84  0.00
  YS02001926YS02001923    1.00   0.00  0.02  0.00  0.12  0.00  0.86  0.00  0.00  0.00
  YS02001929YS02001926    1.00   0.00  0.03  0.00  0.97  0.00  0.00  0.00  0.77  0.00
  YS02001920YS02001918    1.00   0.00  0.00  0.00  1.00  0.00  0.00  0.00  0.00  0.00
  YS02001629YS02163301    1.00   0.04  0.00  0.00  0.96  0.00  0.00  0.00  0.00  0.00
  YS02001619YS02001622    1.00   0.03  0.00  0.00  0.97  0.00  0.00  0.00  0.00  0.00
  YS02001622YS02001625    1.00   0.03  0.00  0.00  0.97  0.00  0.00  0.00  0.04  0.00
  YS02001625YS02001629    1.00   0.04  0.01  0.00  0.94  0.00  0.02  0.00  0.00  0.00
  YS02163301YS02001633    1.00   0.00  0.04  0.00  0.96  0.00  0.00  0.00  0.00  0.00
  YS02163601YS02164001    1.00   0.00  0.02  0.00  0.98  0.00  0.00  0.00  0.00  0.00
  YS02164001YS02001641    1.00   0.00  0.02  0.00  0.98  0.00  0.00  0.00  0.06  0.00
  YS02001641YS02001644    1.00   0.00  0.00  0.00  1.00  0.00  0.00  0.00  0.00  0.00
  YS02001647YS02001649    1.00   0.00  0.04  0.00  0.96  0.00  0.00  0.00  0.01  0.00
  YS02006553YS02006556    1.00   0.01  0.00  0.00  0.99  0.00  0.00  0.00  0.03  0.00
  YS02006556YS02006558    1.00   0.00  0.00  0.00  1.00  0.00  0.00  0.00  0.00  0.00
  YSB6556YSB1171          1.00   0.01  0.02  0.00  0.97  0.00  0.00  0.00  0.00  0.00
  YS02001907YS02006553    1.00   0.00  0.01  0.00  0.99  0.00  0.00  0.00  0.00  0.00
  YS02006558YS02006561    1.00   0.05  0.00  0.00  0.12  0.83  0.00  0.00  0.48  0.00
  YS02001633YS02163601    1.00   0.00  0.00  0.00  1.00  0.00  0.00  0.00  0.15  0.00
  YS02001644YS02001647    1.00   0.00  0.04  0.00  0.96  0.00  0.00  0.00  0.00  0.00
  YS02001745YS02001748    1.00   0.00  0.00  0.00  0.92  0.01  0.00  0.08  0.04  0.00
  YS02001748YS02001751    1.00   0.00  0.00  0.00  0.97  0.03  0.00  0.00  0.15  0.00
  YS02001751YS02001754    1.00   0.00  0.00  0.00  0.95  0.00  0.00  0.05  0.02  0.00
  YS02001754YS02001757    1.00   0.00  0.00  0.00  1.00  0.00  0.00  0.00  0.18  0.00
  YS02001882YS02001884    1.00   0.04  0.00  0.00  0.96  0.00  0.00  0.00  0.00  0.00
  YS02001884YS02001887    1.00   0.02  0.01  0.00  0.97  0.00  0.00  0.00  0.00  0.00
  YS02001890YS02001895    1.00   0.00  0.04  0.00  0.96  0.00  0.00  0.00  0.00  0.00
  YS02001895YS02001898    1.00   0.04  0.00  0.00  0.95  0.00  0.01  0.00  0.00  0.00
  YS02001898YS02001901    1.00   0.04  0.00  0.00  0.96  0.00  0.00  0.00  0.01  0.00
  YS02001901YS02001904    1.00   0.04  0.00  0.00  0.96  0.00  0.00  0.00  0.00  0.00
  YS02001904YS02001907    1.00   0.00  0.04  0.00  0.96  0.00  0.00  0.00  0.00  0.00
  YS02001887YS02001890    1.00   0.00  0.00  0.00  0.99  0.00  0.01  0.00  0.00  0.00
  YS02001652YS02001649    1.00   0.00  0.00  0.00  1.00  0.00  0.00  0.00  0.16  0.00
  YS02001655YS02001652    1.00   0.00  0.00  0.00  0.95  0.00  0.00  0.05  0.02  0.00
  YS02001658YS02001655    1.00   0.00  0.04  0.00  0.94  0.03  0.00  0.00  0.08  0.00
  YS02001661YS02001658    1.00   0.04  0.00  0.00  0.92  0.05  0.00  0.00  0.08  0.00
  YS02001664YS02001661    1.00   0.03  0.00  0.00  0.92  0.04  0.00  0.00  0.19  0.00
  YSB1154YSB6556          1.00   0.03  0.00  0.00  0.97  0.00  0.00  0.00  0.01  0.00
  YSB1174YSB1171          1.00   0.02  0.01  0.00  0.97  0.00  0.00  0.00  0.00  0.00
  YSB1171HS02004479       1.00   0.01  0.00  0.00  0.98  0.00  0.00  0.00  0.10  0.00
  HS02004881HS02006253    1.00   0.02  0.00  0.00  0.74  0.01  0.00  0.23  0.56  0.00
  YS02001793JiankangQianchi    1.00   0.00  0.00  0.00  0.62  0.37  0.00  0.00  0.39  0.00
  YS02001757CaochengTiaoxuchi    1.00   0.00  0.06  0.00  0.94  0.00  0.00  0.00  0.00  0.00
  WSF200WS02003060        1.00   0.00  0.01  0.00  0.99  0.00  0.00  0.00  0.35  0.00
  1                       1.00   0.00  0.00  0.00  0.00  1.00  0.00  0.00  0.47  0.00
  
  
  *************************
  Conduit Surcharge Summary
  *************************
  
  ----------------------------------------------------------------------------
                                                           Hours        Hours 
                         --------- Hours Full --------   Above Full   Capacity
  Conduit                Both Ends  Upstream  Dnstream   Normal Flow   Limited
  ----------------------------------------------------------------------------
  WS02006229WS02006228        4.20      4.30      4.20      4.99         4.19
  WS02006256WS02006235        6.11      6.12      6.88      4.59         0.01
  WS02006253WS02006251        2.14      2.14      2.18      0.01         0.01
  WS02006252WS02006251        1.73      1.73      2.45      2.11         0.01
  WS02006251WS02006249        2.15      2.15      2.21      1.42         1.31
  WS02006249WS02006248        2.17      2.17      2.21      3.96         0.01
  WS02006248WS02006247        2.21      2.21      2.39      0.01         0.01
  WS02006247WS02006245        2.38      2.44      2.38      4.33         2.34
  WS02006245WS02006243        2.42      2.43      2.54      0.15         0.29
  WS02006243WS02006242        2.58      2.58      2.98      0.01         0.01
  WS02006242WS02006240        2.83      2.83      3.11      2.34         0.01
  WS02006240WS02006239        2.89      2.90      3.00      1.12         0.89
  WS02006239WS02006238        3.23      3.24      3.56      1.36         1.06
  WS02006238WS02006235        3.53      3.53      3.77      0.01         0.01
  WS02006235WS02006234        3.02      3.02      3.43      6.02         0.01
  WS02006234WS02006232        3.24      3.24      4.01      1.38         1.28
  WS02006232WS02006231        2.26      2.26      4.01      1.55         0.01
  WS02006231WS02006230        1.89      1.89      2.34      6.17         0.01
  WS02006230WS02006229        4.67      4.90      4.67      6.26         4.67
  WS02006228WS02006109        4.24      4.50      4.24      5.38         4.24
  WS02006116WS02004401        0.29      0.29      0.30      0.24         0.24
  WS02006115WS02006116        0.18      0.18      0.18      0.14         0.13
[...]
  YS02001765YS02001762        5.84      5.84      5.87      0.01         0.01
  YS02001770YS02001767        5.81      5.81      5.81      0.19         0.87
  YS02001774YS02001770        5.80      5.80      5.86      0.01         0.01
  YS02001779YS02001774        5.68      5.68      5.86      0.01         0.01
  YS02001649YS02001757        5.87      5.87      5.98      0.01         0.01
  YS02001767YS02001765        5.81      5.81      5.84      0.01         0.01
  YS02006561YS02001783        0.76      0.76      1.04      0.01         0.01
  YS02001783YS02001784        1.02      1.04      1.02      1.40         1.00
  YS02001784YS02001785        0.96      1.02      0.96      2.38         0.96
  YS02001788YS02001790        0.91      0.91      1.62      0.01         0.01
  YS02001790YS02001791        1.61      1.62      1.72      0.87         0.84
  YS02001791YS02001793        1.72      1.72      2.09      0.01         0.01
  YS02001910YS02001907        1.06      1.06      1.78      0.01         0.01
  YS02001786YS02001788        0.91      0.96      0.91      1.98         0.91
  YS02001915YS02001910        0.89      0.89      1.06      0.01         0.01
  YS02001918YS02001915        0.71      0.71      0.89      0.01         0.01
  YS02001923YS02001920        0.53      0.53      0.74      0.01         0.01
  YS02001920YS02001918        0.71      0.71      0.74      0.01         0.01
  YS02001629YS02163301        5.80      5.80      5.81      0.01         0.01
  YS02001619YS02001622        5.47      5.47      5.51      0.01         0.01
  YS02001622YS02001625        5.51      5.51      5.76      0.01         0.01
  YS02001625YS02001629        5.49      5.49      5.76      0.01         0.01
  YS02163301YS02001633        5.81      5.81      5.84      0.01         0.01
  YS02163601YS02164001        5.84      5.84      5.87      0.01         0.01
  YS02164001YS02001641        5.84      5.84      5.85      0.01         0.04
  YS02001641YS02001644        5.85      5.85      5.85      1.52         1.62
  YS02001647YS02001649        5.75      5.75      5.87      0.01         0.01
  YS02006553YS02006556        1.31      1.31      1.89      0.01         0.01
  YS02006556YS02006558        1.52      1.52      1.94      0.01         0.01
  YS02001907YS02006553        2.41      2.41      2.63      0.01         0.01
  YS02006558YS02006561        0.90      1.26      0.90      2.23         0.90
  YS02001633YS02163601        5.83      5.83      5.87      0.01         0.01
  YS02001644YS02001647        5.75      5.75      5.85      0.01         0.01
  YS02001745YS02001748        0.01      0.01      5.31      0.01         0.01
  YS02001748YS02001751        5.36      5.36      5.48      0.01         0.01
  YS02001751YS02001754        5.47      5.47      5.70      0.01         0.01
  YS02001754YS02001757        5.74      5.74      5.98      0.01         0.01
  YS02001882YS02001884        0.90      0.90      0.93      0.01         0.01
  YS02001884YS02001887        0.97      0.97      0.99      0.01         0.01
  YS02001890YS02001895        0.88      0.88      1.08      0.01         0.01
  YS02001895YS02001898        0.86      0.86      0.88      0.01         0.01
  YS02001898YS02001901        0.88      0.88      0.96      0.01         0.01
  YS02001901YS02001904        0.94      0.94      0.96      0.01         0.01
  YS02001904YS02001907        0.94      0.94      1.90      0.01         0.01
  YS02001887YS02001890        1.02      1.02      1.03      0.01         0.01
  YS02001652YS02001649        5.76      5.76      5.87      0.01         0.01
  YS02001655YS02001652        5.50      5.50      5.73      0.01         0.01
  YS02001658YS02001655        5.33      5.33      5.50      0.01         0.01
  YS02001661YS02001658        0.22      0.22      5.33      0.01         0.01
  YS02001664YS02001661        0.01      0.01      1.23      0.01         0.01
  HS02004881HS02006253        0.01      0.01      1.58      0.01         0.01
  YS02001793JiankangQianchi        1.99      1.99      3.78      0.01         0.01
  YS02001757CaochengTiaoxuchi        5.21      5.21      5.98      0.01         0.01
  
  
  ***************
  Pumping Summary
  ***************
  
  ---------------------------------------------------------------------------------------------------------
                                                  Min       Avg       Max     Total     Power    % Time Off
                        Percent   Number of      Flow      Flow      Flow    Volume     Usage    Pump Curve
  Pump                 Utilized   Start-Ups       LPS       LPS       LPS  10^6 ltr     Kw-hr    Low   High
  ---------------------------------------------------------------------------------------------------------
  CC-Pump-1               63.82           1      0.00    172.77    200.00     3.060      3.25    0.0    0.0
  CC-Pump-2               40.43           4      0.00    107.67    200.00     1.440      1.99    0.0    0.0
  JK-Pump-1               63.84           5      0.00    227.67    300.00     3.974     61.49    0.0    0.0
  JK-Pump-2               53.19           4      0.00    399.92    683.00     6.178     93.26    0.0   96.3
  XR-Pump-1               97.87           2      0.00     94.25     95.00     2.565     25.93    0.0    0.0
  XR-Pump-2               97.87           2      0.00     94.25     95.00     2.565     25.93    0.0    0.0
  XR-Pump-3               95.74           3      0.00     93.78     95.00     2.451     23.33    0.0    0.0
  XR-Pump-4               95.74           3      0.00     93.78     95.00     2.451     23.33    0.0    0.0
  
  
  ***************************
  Link Pollutant Load Summary
  ***************************
  
  ------------------------------------------------------------------------------------------
                                 COD            SS            TN            TP         NH4-N
  Link                            kg            kg            kg            kg            kg
  ------------------------------------------------------------------------------------------
  WS02003066WSF200           821.785      1509.463        21.900         1.920        11.566
  WS02006287WS02006284       268.083       498.263         9.347         0.943         5.214
  WS02006284WS02006280       268.571       499.050         9.394         0.949         5.244
  WS02006280WS02006229       268.535       498.984         9.392         0.949         5.243
  WS02006229WS02006228       825.787      1516.926        21.472         1.851        11.266
  WS02006256WS02006235       186.591       340.227         4.232         0.335         2.156
  WS02006253WS02006251        51.378        98.878         1.189         0.092         0.597
  WS02006252WS02006251       373.982       678.162         7.832         0.561         3.851
  WS02006251WS02006249       418.405       764.540         8.894         0.646         4.389
  WS02006249WS02006248       380.068       694.380         8.089         0.587         3.993
  WS02006248WS02006247       379.835       694.003         8.083         0.587         3.990
  WS02006247WS02006245       379.343       693.123         8.072         0.586         3.985
  WS02006245WS02006243       378.716       692.090         8.053         0.584         3.975
  WS02006243WS02006242       378.424       691.588         8.047         0.584         3.972
  WS02006242WS02006240       377.650       690.250         8.028         0.582         3.962
  WS02006240WS02006239       377.783       690.601         8.027         0.582         3.961
  WS02006239WS02006238       379.037       692.864         8.063         0.585         3.980
  WS02006238WS02006235       379.447       693.473         8.078         0.587         3.989
  WS02006235WS02006234       561.705      1025.798        12.202         0.913         6.088
  WS02006234WS02006232       561.051      1024.634        12.189         0.912         6.082
  WS02006232WS02006231       560.148      1023.039        12.166         0.910         6.070
  WS02006231WS02006230       559.377      1021.660        12.149         0.909         6.062
  WS02006230WS02006229       558.338      1019.862        12.117         0.906         6.044
  WS02006228WS02006109       824.532      1514.730        21.436         1.847        11.247
  WS02006116WS02004401       834.193      1531.560        22.179         1.941        11.705
  WS02006115WS02006116       835.605      1534.050        22.218         1.944        11.726
  WS02006113WS02006111       829.775      1522.646        22.149         1.940        11.701
  WS02006112WS02006115       837.013      1536.532        22.264         1.948        11.751
  WS02006111WS02006112       829.074      1521.387        22.130         1.938        11.691
  WS02006110WS02006113       830.390      1523.714        22.171         1.942        11.713
  WS02006109WS02006110       831.675      1525.952        22.217         1.947        11.739
  WS02004411WS02004412       825.383      1515.808        22.016         1.931        11.629
  WS02004401WS02004402       832.865      1529.219        22.137         1.937        11.682
  WS02004413WS02003067       822.444      1510.629        21.915         1.921        11.574
  WS02004412WS02004413       824.080      1513.507        21.977         1.928        11.609
  WS02004410WS02004411       826.437      1517.668        22.045         1.934        11.645
  WS02004409WS02004410       827.511      1519.563        22.078         1.937        11.663
  WS02004407WS02004409       828.385      1521.102        22.100         1.938        11.674
  WS02004406WS02004407       828.614      1521.502        22.101         1.938        11.674
  WS02004405WS02004406       830.084      1524.077        22.154         1.943        11.704
  WS02004404WS02004405       831.048      1525.825        22.157         1.942        11.702
  WS02004403WS02004404       830.627      1525.270        22.069         1.931        11.646
  WS02004402WS02004403       831.673      1527.119        22.103         1.934        11.664
  WS02004139WS02001211      1410.809      2324.147       117.350        14.371        72.469
  WS02004138WS02004139      1417.395      2335.027       117.881        14.436        72.796
  WS02003067WS02003066       822.002      1509.847        21.907         1.921        11.570
  WS02001213WS02003059      1443.200      2375.227       120.680        14.791        74.561
  WS02001212WS02001213      1452.730      2390.878       121.478        14.889        75.054
  WS02001211WS02001212      1454.900      2394.408       121.667        14.912        75.172
  WS02003072WS02003073      2364.440      4042.745       152.501        17.957        92.343
  WS02003069WS02003072      2369.447      4050.974       152.905        18.006        92.592
  WS02003060WS02003069      2372.312      4055.864       153.070        18.025        92.691
  WS02003059WS02003060      1439.909      2369.736       120.431        14.761        74.408
  HS02004901HS02004770        10.270        19.478         0.195         0.015         0.091
  HS02004876HS02004881        37.321        72.586         0.843         0.062         0.416
  HS02004870HS02004876        28.163        54.633         0.678         0.051         0.338
  HS02004842HS02004848         5.467        10.277         0.115         0.008         0.053
  HS02004837HS02004842        10.073        17.582         0.584         0.067         0.347
  HS02004830HS02004837        65.640       112.707         4.557         0.546         2.785
  HS02004824HS02004830        66.391       113.910         4.628         0.555         2.830
  HS02004817HS02004824        88.209       156.982         5.083         0.584         3.051
  HS02004770HS02004777        39.297        75.469         0.819         0.055         0.377
  HS02004799HS02004480       131.419       245.392         3.680         0.335         1.933
  HS02004792HS02004799       119.093       220.678         3.497         0.327         1.853
  HS02004788HS02004792        68.400       126.865         2.388         0.235         1.309
  HS02004785HS02004788        40.736        77.766         0.969         0.074         0.471
  HS02004777HS02004785        40.061        76.671         0.909         0.067         0.434
  HS02004480HS02004478       165.966       312.626         4.244         0.375         2.196
  HS02004479HS02004480        38.149        72.981         0.884         0.079         0.462
  HS02004862HS02004870        21.018        40.121         0.536         0.043         0.270
  HS02004848HS02004852         8.058        15.280         0.167         0.011         0.077
  HS02004856HS02004862        14.073        27.343         0.284         0.019         0.133
  HS02004852HS02004856         8.065        15.291         0.167         0.011         0.077
  HS02004802HS02004478       102.894       186.903         5.163         0.576         3.055
  HS02004478WS02006287       268.278       498.590         9.364         0.945         5.225
  HS02004817HS02004807        86.893       154.871         4.957         0.568         2.972
  HS02004807HS02004802       103.119       187.255         5.195         0.580         3.075
  YS02001759YS02001757       355.491       646.951         7.137         0.493         3.486
  YS02001762YS02001759       161.327       294.104         3.470         0.243         1.720
  YS02001765YS02001762       161.151       294.090         3.489         0.245         1.731
  YS02001770YS02001767       159.437       291.892         3.252         0.212         1.578
  YS02001774YS02001770       158.698       306.338         3.068         0.202         1.482
  YS02001779YS02001774       157.768       304.433         3.154         0.216         1.543
  YS02001649YS02001757       294.704       523.286         5.953         0.413         2.858
  YS02001767YS02001765       161.396       294.744         3.510         0.247         1.744
  YS02006561YS02001783       936.026      1716.596        19.831         1.488         9.897
  YS02001783YS02001784       935.882      1716.363        19.826         1.488         9.894
  YS02001784YS02001785       943.200      1728.090        20.539         1.577        10.340
  YS02001788YS02001790       943.767      1729.006        20.611         1.586        10.386
  YS02001790YS02001791       944.859      1730.788        20.719         1.600        10.454
  YS02001791YS02001793       944.746      1730.584        20.715         1.600        10.451
  YS02001910YS02001907       330.094       599.198         8.231         0.642         4.253
  YS02001786YS02001788       943.384      1728.394        20.566         1.581        10.358
  YS02001915YS02001910       330.196       599.359         8.188         0.636         4.224
  YS02001918YS02001915       159.939       278.002         4.661         0.434         2.537
  YS02001923YS02001920       137.640       241.464         2.675         0.188         1.302
  YS02001926YS02001923       136.677       239.894         2.595         0.178         1.253
  YS02001929YS02001926       136.171       239.031         2.555         0.174         1.228
  YS02001920YS02001918       157.910       274.012         4.592         0.427         2.499
  YS02001629YS02163301       103.580       183.541         2.172         0.140         1.013
  YS02001619YS02001622       146.388       262.920         3.031         0.197         1.414
  YS02001622YS02001625       145.234       261.096         3.003         0.195         1.401
  YS02001625YS02001629       104.673       185.350         2.196         0.142         1.024
  YS02163301YS02001633       103.302       183.073         2.165         0.140         1.010
  YS02163601YS02164001       362.094       646.305         7.117         0.503         3.404
  YS02164001YS02001641       361.616       645.503         7.097         0.501         3.393
  YS02001641YS02001644       361.852       645.824         7.096         0.500         3.392
  YS02001647YS02001649       346.847       624.046         6.912         0.481         3.301
  YS02006553YS02006556       657.539      1200.234        14.233         1.095         7.178
  YS02006556YS02006558       657.465      1200.084        14.201         1.090         7.157
  YSB6556YSB1171              21.954        42.200         0.451         0.038         0.229
  YS02001907YS02006553       657.651      1200.462        14.247         1.097         7.187
  YS02006558YS02006561       935.994      1716.527        19.830         1.488         9.896
  YS02001633YS02163601       362.804       647.409         7.097         0.499         3.388
  YS02001644YS02001647       352.475       634.171         7.005         0.488         3.344
  YS02001745YS02001748       210.421       387.019         4.761         0.334         2.381
  YS02001748YS02001751       208.402       383.206         4.799         0.343         2.414
  YS02001751YS02001754       207.453       381.651         4.781         0.342         2.406
  YS02001754YS02001757       208.225       382.817         4.946         0.365         2.513
  YS02001882YS02001884         2.917         5.041         0.059         0.005         0.029
  YS02001884YS02001887         6.860        12.156         0.134         0.010         0.066
  YS02001890YS02001895       389.427       720.586         7.188         0.539         3.508
  YS02001895YS02001898       389.242       720.328         7.182         0.539         3.504
  YS02001898YS02001901       389.035       719.979         7.177         0.538         3.502
  YS02001901YS02001904       388.883       719.764         7.184         0.540         3.507
  YS02001904YS02001907       389.095       720.085         7.237         0.547         3.541
  YS02001887YS02001890       390.222       721.771         7.243         0.546         3.541
  YS02001652YS02001649       149.144       273.192         3.039         0.219         1.426
  YS02001655YS02001652       149.672       274.050         3.053         0.220         1.433
  YS02001658YS02001655       149.211       273.318         2.968         0.208         1.377
  YS02001661YS02001658       153.325       280.646         3.051         0.214         1.415
  YS02001664YS02001661       176.801       319.912         3.569         0.249         1.652
  YSB1154YSB6556              21.534        41.530         0.402         0.032         0.198
  YSB1174YSB1171              14.656        28.293         0.298         0.024         0.150
  YSB1171HS02004479           38.107        72.914         0.888         0.079         0.465
  HS02004881HS02006253        42.508        83.067         0.931         0.068         0.458
  YS02001793JiankangQianchi       948.854      1737.271        20.892         1.618        10.554
  YS02001757CaochengTiaoxuchi       618.106      1110.057        13.077         0.932         6.429
  WSF200WS02003060           821.526      1508.995        21.900         1.920        11.567
  1                         2369.917      4050.871       153.256        18.055        92.824
  CC-Pump-1                  254.798       462.156         5.333         0.382         2.622
  CC-Pump-2                  119.212       216.053         2.500         0.179         1.230
  JK-Pump-1                  242.404       444.370         5.417         0.425         2.749
  JK-Pump-2                  463.371       863.511         9.646         0.725         4.806
  XR-Pump-1                  368.511       606.453        30.819         3.777        19.042
  XR-Pump-2                  368.511       606.453        30.819         3.777        19.042
  XR-Pump-3                  342.082       564.167        28.282         3.460        17.456
  XR-Pump-4                  342.082       564.167        28.282         3.460        17.456
  

  Analysis begun on:  Fri Jul 16 09:49:03 2021
  Analysis ended on:  Fri Jul 16 09:49:06 2021
  Total elapsed time: 00:00:03