
  EPA STORM WATER MANAGEMENT MODEL - VERSION 5.1 (Build 5.3.0.dev0)
  --------------------------------------------------------------

  WARNING 04: minimum elevation drop used for Conduit WS02004404WS02004405
  WARNING 03: negative offset ignored for Link YS02001904YS02001907
  
  *********************************************************
  NOTE: The summary statistics displayed in this report are
  based on results found at every computational time step,  
  not just on results from each reporting time step.
  *********************************************************
  
  ****************
  Analysis Options
  ****************
  Flow Units ............... LPS
  Process Models:
    Rainfall/Runoff ........ YES
    RDII ................... NO
    Snowmelt ............... NO
    Groundwater ............ NO
    Flow Routing ........... YES
    Ponding Allowed ........ NO
    Water Quality .......... YES
  Infiltration Method ...... HORTON
  Flow Routing Method ...... DYNWAVE
  Surcharge Method ......... EXTRAN
  Starting Date ............ 08/28/2015 08:00:00
  Ending Date .............. 08/28/2015 15:50:00
  Antecedent Dry Days ...... 8.0
  Report Time Step ......... 00:01:00
  Wet Time Step ............ 00:01:00
  Dry Time Step ............ 00:01:00
  Routing Time Step ........ 5.00 sec
  Variable Time Step ....... YES
  Maximum Trials ........... 8
  Number of Threads ........ 4
  Head Tolerance ........... 0.001500 m
  
  
  **************************        Volume         Depth
  Runoff Quantity Continuity     hectare-m            mm
  **************************     ---------       -------
  Total Precipitation ......         5.556        12.164
  Evaporation Loss .........         0.000         0.000
  Infiltration Loss ........         1.002         2.194
  Surface Runoff ...........         3.688         8.075
  Final Storage ............         0.866         1.897
  Continuity Error (%) .....        -0.019
  
  
  **************************           COD            SS            TN            TP         NH4-N
  Runoff Quality Continuity             kg            kg            kg            kg            kg
  **************************    ----------    ----------    ----------    ----------    ----------
  Initial Buildup ..........     41378.656     70582.865      1804.177       168.684      1032.807
  Surface Buildup ..........        19.275        34.271         2.335         0.213         1.362
  Wet Deposition ...........         0.000         0.000         0.000         0.000         0.000
  Sweeping Removal .........         0.000         0.000         0.000         0.000         0.000
  Infiltration Loss ........        84.023       157.502         1.599         0.111         0.761
  BMP Removal ..............         0.000         0.000         0.000         0.000         0.000
  Surface Runoff ...........      3122.074      5752.154        60.620         4.098        28.771
  Remaining Buildup ........     38190.779     64705.500      1744.271       164.686      1004.628
  Continuity Error (%) .....         0.003         0.003         0.001         0.001         0.001
  
  
  **************************        Volume        Volume
  Flow Routing Continuity        hectare-m      10^6 ltr
  **************************     ---------     ---------
  Dry Weather Inflow .......         0.616         6.165
  Wet Weather Inflow .......         3.687        36.871
  Groundwater Inflow .......         0.000         0.000
  RDII Inflow ..............         0.000         0.000
  External Inflow ..........         0.102         1.024
  External Outflow .........         2.056        20.560
  Flooding Loss ............         1.956        19.560
  Evaporation Loss .........         0.000         0.000
  Exfiltration Loss ........         0.000         0.000
  Initial Stored Volume ....         0.076         0.761
  Final Stored Volume ......         0.595         5.946
  Continuity Error (%) .....        -2.781
  
  
  **************************           COD            SS            TN            TP         NH4-N
  Quality Routing Continuity            kg            kg            kg            kg            kg
  **************************    ----------    ----------    ----------    ----------    ----------
  Dry Weather Inflow .......      1541.201      2465.922       147.955        18.494        92.472
  Wet Weather Inflow .......      3121.361      5750.963        60.605         4.097        28.764
  Groundwater Inflow .......         0.000         0.000         0.000         0.000         0.000
  RDII Inflow ..............         0.000         0.000         0.000         0.000         0.000
  External Inflow ..........       183.418       293.469        17.608         2.201        11.005
  External Outflow .........      2397.726      4104.121       153.481        18.050        92.879
  Flooding Loss ............      1794.027      3292.568        46.195         4.014        24.264
  Exfiltration Loss ........         0.000         0.000         0.000         0.000         0.000
  Mass Reacted .............         0.000         0.000         0.000         0.000         0.000
  Initial Stored Mass ......         0.000         0.000         0.000         0.000         0.000
  Final Stored Mass ........       497.103       843.665        22.614         2.420        13.120
  Continuity Error (%) .....         3.242         3.173         1.715         1.244         1.496
  
  
  *************************
  Highest Continuity Errors
  *************************
  Node HS02004842 (14.53%)
  Node JK-storage (-12.17%)
  Node YS02001884 (9.39%)
  Node YSB1171 (2.74%)
  Node HS02004817 (2.73%)
  
  
  ***************************
  Time-Step Critical Elements
  ***************************
  Link WS02006252WS02006251 (62.11%)
  Link WS02006280WS02006229 (11.13%)
  Link WS02006238WS02006235 (4.84%)
  Link WS02004404WS02004405 (4.49%)
  Link YS02001793JiankangQianchi (3.53%)
  
  
  ********************************
  Highest Flow Instability Indexes
  ********************************
  Link YS02163601YS02164001 (42)
  Link YS02001619YS02001622 (41)
  Link YS02163301YS02001633 (41)
  Link YS02001629YS02163301 (41)
  Link WS02006238WS02006235 (41)
  
  
  *************************
  Routing Time Step Summary
  *************************
  Minimum Time Step           :     0.33 sec
  Average Time Step           :     1.21 sec
  Maximum Time Step           :     5.00 sec
  Percent in Steady State     :    -0.00
  Average Iterations per Step :     4.61
  Percent Not Converging      :    24.15
  
  
  ***************************
  Subcatchment Runoff Summary
  ***************************
  
  ------------------------------------------------------------------------------------------------------------------------------
                            Total      Total      Total      Total     Imperv       Perv      Total       Total     Peak  Runoff
                           Precip      Runon       Evap      Infil     Runoff     Runoff     Runoff      Runoff   Runoff   Coeff
  Subcatchment                 mm         mm         mm         mm         mm         mm         mm    10^6 ltr      LPS
  ------------------------------------------------------------------------------------------------------------------------------
  sub0                      12.16       0.00       0.00       0.65      11.27       0.20      11.47        0.01     1.99   0.943
  sub1                      12.16       0.00       0.00       1.12      10.73       0.22      10.95        0.07    14.96   0.900
  sub2                      12.16       0.00       0.00       4.23       7.58       0.27       7.85        0.07    15.08   0.646
  sub3                      12.16       0.00       0.00       4.29       7.54       0.21       7.75        0.17    34.61   0.637
  sub4                      12.16       0.00       0.00       1.19      10.57       0.14      10.71        0.22    42.34   0.881
  sub5                      12.16       0.00       0.00       0.69      11.21       0.16      11.38        0.13    26.18   0.935
  sub7                      12.16       0.00       0.00       0.88      11.01       0.22      11.22        0.04     7.95   0.923
  sub8                      12.16       0.00       0.00       0.89      11.00       0.21      11.20        0.07    14.89   0.921
  sub9                      12.16       0.00       0.00       0.89      10.99       0.21      11.20        0.05    11.18   0.921
  sub10                     12.16       0.00       0.00       0.79      11.10       0.18      11.28        0.12    25.49   0.928
  sub11                     12.16       0.00       0.00       0.78      11.12       0.19      11.31        0.13    27.35   0.930
  sub12                     12.16       0.00       0.00       1.27      10.53       0.31      10.85        0.09    20.52   0.892
  sub14                     12.16       0.00       0.00       0.89      10.99       0.20      11.20        0.11    22.08   0.920
  sub15                     12.16       0.00       0.00       3.28       8.45       0.37       8.82        0.15    32.49   0.725
  sub16                     12.16       0.00       0.00       3.51       8.11       0.50       8.61        0.09    20.36   0.708
  sub17                     12.16       0.00       0.00       3.41       8.23       0.48       8.71        0.07    16.72   0.716
  sub22                     12.16       0.00       0.00       4.80       6.89       0.43       7.32        0.46   102.62   0.602
  sub23                     12.16       0.00       0.00       4.05       7.62       0.45       8.07        0.38    85.35   0.663
  sub60                     12.16       0.00       0.00       1.42       8.82       0.04       8.86        2.69   336.84   0.729
  sub61                     12.16       0.00       0.00       2.01       8.94       0.06       9.00        2.78   399.45   0.740
  sub62                     12.16       0.00       0.00       0.92       9.73       0.05       9.78        3.01   415.79   0.804
  sub63                     12.16       0.00       0.00       3.46       7.82       0.06       7.88        2.39   361.21   0.648
  sub64                     12.16       0.00       0.00       1.78       8.47       0.04       8.51        2.59   320.97   0.699
  sub65                     12.16       0.00       0.00       1.54       8.61       0.04       8.65        2.66   326.54   0.711
  sub66                     12.16       0.00       0.00       3.49       7.26       0.04       7.30        2.24   290.53   0.600
  sub67                     12.16       0.00       0.00       0.91      10.24       0.07      10.31        3.18   494.23   0.848
  sub68                     12.16       0.00       0.00       1.64       9.40       0.06       9.46        2.91   432.52   0.778
  sub69                     12.16       0.00       0.00       1.73       9.72       0.09       9.82        2.29   383.95   0.807
  sub70                     12.16      10.02       0.00       6.98      13.09       0.56      13.65        3.12   394.93   0.615
  sub71                     12.16       0.00       0.00       0.93       9.48       0.05       9.53        2.25   296.34   0.783
  sub72                     12.16       0.00       0.00       0.83       7.62       0.02       7.64        1.56   151.13   0.628
  1                         12.16      13.29       0.00       1.37      14.64       3.94      18.57        4.36   399.24   0.730
  2                         12.16       0.00       0.00       3.02       2.89       1.65       4.55        1.82   245.52   0.374
  
  
  ****************************
  Subcatchment Washoff Summary
  ****************************
  
  ------------------------------------------------------------------------------------------
                                 COD            SS            TN            TP         NH4-N
  Subcatchment                    kg            kg            kg            kg            kg
  ------------------------------------------------------------------------------------------
  sub0                         2.176         4.147         0.037         0.003         0.018
  sub1                         9.268        18.138         0.173         0.012         0.083
  sub2                         5.563        10.570         0.119         0.008         0.054
  sub3                        13.747        25.918         0.288         0.019         0.132
  sub4                        21.530        42.606         0.429         0.026         0.205
  sub5                        21.300        41.103         0.378         0.029         0.183
  sub7                         4.748         9.424         0.090         0.006         0.043
  sub8                         7.142        14.500         0.143         0.008         0.069
  sub9                         6.100        12.212         0.118         0.007         0.057
  sub10                       17.532        34.266         0.321         0.023         0.155
  sub11                       17.086        33.770         0.320         0.022         0.154
  sub12                       14.392        27.890         0.260         0.019         0.125
  sub14                       13.021        25.823         0.247         0.016         0.119
  sub15                       16.182        30.744         0.313         0.023         0.146
  sub16                       10.318        19.555         0.197         0.015         0.092
  sub17                        9.471        17.789         0.175         0.014         0.082
  sub22                       48.821        90.813         0.932         0.070         0.434
  sub23                       29.138        56.181         0.627         0.041         0.287
  sub60                      203.703       376.194         4.083         0.248         1.956
  sub61                      251.300       461.579         4.699         0.320         2.261
  sub62                      262.762       491.326         5.157         0.324         2.474
  sub63                      185.047       334.594         3.739         0.261         1.731
  sub64                      253.867       452.095         4.687         0.339         2.235
  sub65                      260.106       465.192         4.834         0.344         2.309
  sub66                      146.558       263.078         3.037         0.197         1.417
  sub67                      388.205       718.566         6.963         0.510         3.363
  sub68                      276.714       513.393         5.318         0.356         2.539
  sub69                      247.676       464.012         4.658         0.325         2.225
  sub70                      413.256       778.342         8.287         0.572         3.877
  sub71                      173.740       327.842         3.597         0.206         1.720
  sub72                      136.329       239.316         2.558         0.174         1.230
  1                          280.724       531.718         5.751         0.398         2.660
  2                           35.485        61.812         1.030         0.062         0.437
  ------------------------------------------------------------------------------------------
  System                    3783.006      6994.507        73.566         4.996        34.873
  
  
  ******************
  Node Depth Summary
  ******************
  
  ---------------------------------------------------------------------------------
                                 Average  Maximum  Maximum  Time of Max    Reported
                                   Depth    Depth      HGL   Occurrence   Max Depth
  Node                 Type       Meters   Meters   Meters  days hr:min      Meters
  ---------------------------------------------------------------------------------
  WS02001211           JUNCTION     0.78     0.83     5.67     0  03:08        0.83
  WS02001212           JUNCTION     0.49     0.56     5.62     0  03:07        0.56
  WS02001213           JUNCTION     0.73     0.83     5.59     0  03:07        0.83
  WS02003069           JUNCTION     0.54     0.68     5.27     0  03:06        0.68
  WS02003072           JUNCTION     0.60     0.73     5.10     0  03:07        0.73
  WS02003073           JUNCTION     0.37     0.46     4.52     0  03:07        0.46
  WS02003060           JUNCTION     0.47     0.60     5.53     0  03:06        0.60
  WS02003066           JUNCTION     0.26     0.36     5.92     0  03:05        0.36
  WS02003059           JUNCTION     0.78     0.88     5.57     0  03:06        0.88
  WS02003067           JUNCTION     0.62     0.79     6.11     0  03:04        0.79
  WS02004401           JUNCTION     0.75     1.14     7.14     0  03:02        1.13
  WS02004402           JUNCTION     0.78     1.14     7.10     0  03:03        1.13
  WS02004403           JUNCTION     0.80     1.12     7.05     0  03:02        1.12
  WS02004404           JUNCTION     0.87     1.18     7.03     0  03:01        1.17
  WS02004406           JUNCTION     0.87     1.12     6.95     0  03:03        1.12
  WS02004409           JUNCTION     0.57     0.87     6.64     0  03:04        0.87
  WS02004410           JUNCTION     0.59     0.87     6.59     0  03:04        0.87
  WS02004411           JUNCTION     0.60     0.86     6.54     0  03:04        0.86
  WS02004412           JUNCTION     0.61     0.85     6.49     0  03:04        0.85
  WS02004413           JUNCTION     0.76     0.98     6.45     0  03:04        0.98
  WS02004405           JUNCTION     0.86     1.16     7.01     0  03:01        1.15
  WS02006109           JUNCTION     0.85     1.31     7.93     0  03:01        1.30
  WS02006110           JUNCTION     0.82     1.15     7.74     0  03:02        1.14
  WS02006111           JUNCTION     0.25     0.65     7.36     0  03:03        0.65
  WS02006112           JUNCTION     0.93     1.42     7.30     0  03:02        1.41
  WS02006113           JUNCTION     0.39     0.65     7.54     0  03:03        0.65
  WS02006115           JUNCTION     0.65     1.09     7.23     0  03:03        1.09
  WS02006116           JUNCTION     0.73     1.14     7.18     0  03:02        1.14
  WS02006230           JUNCTION     0.88     1.52     8.26     0  03:02        1.51
  WS02006231           JUNCTION     0.61     1.21     8.34     0  03:02        1.21
  WS02006232           JUNCTION     0.76     1.36     8.40     0  03:01        1.36
  WS02006234           JUNCTION     0.71     1.32     8.47     0  03:02        1.31
  WS02006235           JUNCTION     0.75     1.37     8.53     0  03:00        1.36
  WS02006238           JUNCTION     0.78     1.39     8.54     0  03:02        1.38
  WS02006240           JUNCTION     0.69     1.28     8.57     0  03:02        1.27
  WS02006242           JUNCTION     0.75     1.33     8.60     0  03:01        1.32
  WS02006243           JUNCTION     0.64     1.21     8.63     0  03:02        1.20
  WS02006245           JUNCTION     0.62     1.17     8.66     0  03:02        1.16
  WS02006247           JUNCTION     0.63     1.17     8.67     0  03:02        1.16
  WS02006248           JUNCTION     0.57     1.10     8.68     0  03:00        1.09
  WS02006249           JUNCTION     0.59     1.09     8.69     0  02:55        1.09
  WS02006239           JUNCTION     0.74     1.35     8.55     0  03:01        1.34
  WS02006251           JUNCTION     0.57     1.40     9.07     0  02:55        1.35
  WS02006252           JUNCTION     0.35     0.88     9.12     0  02:55        0.84
  WS02006253           JUNCTION     0.60     1.48     9.12     0  02:55        1.43
  WS02006256           JUNCTION     1.72     2.35     9.28     0  00:00        2.35
  WS02004138           JUNCTION     0.19     0.20     7.45     0  00:00        0.19
  WS02004139           JUNCTION     0.72     0.77     5.68     0  03:08        0.77
  WS02004407           JUNCTION     0.25     0.37     6.68     0  03:03        0.37
  WS02006228           JUNCTION     0.86     1.44     8.09     0  03:03        1.43
  WS02006229           JUNCTION     0.85     1.49     8.18     0  03:02        1.48
  WS02006280           JUNCTION     0.07     0.20     8.47     0  03:02        0.20
  WS02006284           JUNCTION     0.37     0.56     8.96     0  03:02        0.56
  WS02006287           JUNCTION     0.10     0.30     9.25     0  03:01        0.30
  WSF200               JUNCTION     0.26     0.40     5.64     0  03:05        0.40
  HS02004901           JUNCTION     0.13     0.29    10.12     0  03:01        0.29
  HS02004881           JUNCTION     0.01     0.04     9.07     0  02:56        0.04
  HS02004876           JUNCTION     0.04     0.12     9.15     0  03:01        0.12
  HS02004870           JUNCTION     0.02     0.07     9.35     0  03:01        0.07
  HS02004862           JUNCTION     0.02     0.08     9.46     0  03:01        0.08
  HS02004856           JUNCTION     0.08     0.13     9.55     0  03:01        0.13
  HS02004852           JUNCTION     0.01     0.05     9.56     0  03:01        0.05
  HS02004848           JUNCTION     0.01     0.05     9.65     0  03:01        0.05
  HS02004842           JUNCTION     0.34     0.38     9.65     0  03:01        0.38
  HS02004837           JUNCTION     0.03     0.07     9.65     0  03:01        0.07
  HS02004830           JUNCTION     0.04     0.08     9.55     0  03:01        0.08
  HS02004824           JUNCTION     0.02     0.06     9.47     0  03:01        0.06
  HS02004817           JUNCTION     0.44     0.61     9.45     0  03:01        0.61
  HS02004807           JUNCTION     0.13     0.28     9.45     0  03:01        0.28
  HS02004802           JUNCTION     0.16     0.31     9.44     0  03:01        0.31
  HS02004799           JUNCTION     0.12     0.35     9.56     0  03:01        0.35
  HS02004792           JUNCTION     0.03     0.15     9.67     0  03:01        0.15
  HS02004788           JUNCTION     0.03     0.11    10.01     0  03:01        0.11
  HS02004785           JUNCTION     0.05     0.18    10.09     0  03:01        0.18
  HS02004777           JUNCTION     0.15     0.31    10.11     0  03:01        0.31
  HS02004770           JUNCTION     0.12     0.29    10.12     0  03:01        0.29
  HS02004480           JUNCTION     0.08     0.28     9.52     0  03:01        0.28
  HS02004479           JUNCTION     0.12     0.32     9.52     0  03:01        0.32
  HS02004478           JUNCTION     0.06     0.20     9.42     0  03:01        0.20
  YS02001745           JUNCTION     0.70     0.91     8.43     0  03:00        0.91
  YS02001748           JUNCTION     1.11     1.38     8.46     0  02:31        1.34
  YS02001751           JUNCTION     1.29     1.55     8.43     0  02:54        1.53
  YS02001754           JUNCTION     1.54     1.82     8.43     0  02:55        1.81
  YS02001762           JUNCTION     1.74     2.04     8.44     0  02:55        2.02
  YS02001765           JUNCTION     1.70     1.98     8.43     0  03:19        1.97
  YS02001767           JUNCTION     1.66     1.93     8.42     0  02:55        1.92
  YS02001770           JUNCTION     1.66     1.92     8.41     0  02:55        1.90
  YS02001774           JUNCTION     1.72     1.98     8.40     0  02:55        1.97
  YS02001779           JUNCTION     1.47     1.68     8.37     0  02:36        1.68
  YS02001882           JUNCTION     0.53     1.62     8.34     0  03:00        1.61
  YS02001884           JUNCTION     0.63     1.72     8.34     0  03:00        1.71
  YS02001759           JUNCTION     1.78     2.07     8.44     0  02:55        2.05
  YS02001887           JUNCTION     0.71     1.79     8.33     0  02:59        1.79
  YS02001890           JUNCTION     0.74     1.81     8.32     0  02:54        1.81
  YS02001898           JUNCTION     0.50     1.56     8.29     0  03:00        1.55
  YS02001901           JUNCTION     0.62     1.67     8.28     0  02:57        1.67
  YS02001904           JUNCTION     0.60     1.64     8.27     0  02:59        1.63
  YS02001907           JUNCTION     0.93     1.96     8.25     0  02:46        1.96
  YS02001910           JUNCTION     0.72     1.77     8.28     0  02:47        1.76
  YS02001915           JUNCTION     0.52     1.58     8.29     0  02:48        1.57
  YS02001918           JUNCTION     0.26     1.24     8.30     0  02:48        1.24
  YS02001619           JUNCTION     1.25     1.47     8.40     0  02:59        1.47
  YS02001629           JUNCTION     1.61     1.85     8.39     0  02:36        1.84
  YS02001641           JUNCTION     1.71     1.94     8.37     0  02:42        1.93
  YS02001644           JUNCTION     1.71     1.92     8.35     0  02:34        1.92
  YS02001652           JUNCTION     1.56     2.14     8.73     0  02:42        1.88
  YS02001655           JUNCTION     1.32     2.20     9.05     0  02:42        1.70
  YS02001920           JUNCTION     0.36     1.31     8.32     0  02:48        1.30
  YS02001923           JUNCTION     0.20     1.06     8.32     0  02:48        1.06
  YS02001926           JUNCTION     0.26     0.88     8.32     0  02:48        0.87
  YS02001929           JUNCTION     0.15     0.63     8.32     0  02:48        0.62
  YS02001658           JUNCTION     1.05     2.30     9.44     0  02:42        1.49
  YS02001661           JUNCTION     0.81     2.46     9.86     0  02:42        1.53
  YS02001664           JUNCTION     0.34     0.58     8.51     0  02:38        0.57
  YS02001622           JUNCTION     1.27     1.50     8.40     0  02:59        1.49
  YS02001633           JUNCTION     1.70     1.95     8.40     0  02:36        1.94
  YS02001649           JUNCTION     1.75     2.05     8.44     0  02:39        2.03
  YS02001757           JUNCTION     1.88     2.17     8.43     0  02:55        2.15
  YS02001895           JUNCTION     0.50     1.56     8.31     0  02:59        1.56
  YS02001625           JUNCTION     1.56     1.78     8.38     0  02:34        1.78
  YS02163301           JUNCTION     1.64     1.88     8.40     0  02:36        1.87
  YS02163601           JUNCTION     1.75     1.99     8.39     0  02:36        1.98
  YS02164001           JUNCTION     1.69     1.92     8.38     0  02:36        1.91
  YS02001647           JUNCTION     1.54     1.80     8.41     0  02:42        1.78
  YSB1154              JUNCTION     0.26     0.47     9.52     0  03:01        0.47
  YSB6556              JUNCTION     0.15     0.35     9.52     0  03:01        0.35
  YSB1174              JUNCTION     0.21     0.41     9.52     0  03:01        0.41
  YSB1171              JUNCTION     0.41     0.62     9.52     0  03:01        0.62
  YS02006553           JUNCTION     0.93     1.96     8.25     0  02:59        1.96
  YS02006561           JUNCTION     0.29     1.06     7.72     0  02:59        1.05
  YS02006556           JUNCTION     0.90     1.92     8.23     0  03:00        1.92
  YS02006558           JUNCTION     0.94     1.96     8.23     0  03:00        1.95
  YS02001783           JUNCTION     0.50     1.57     7.71     0  02:23        1.44
  YS02001784           JUNCTION     0.52     1.47     7.54     0  02:23        1.38
  YS02001786           JUNCTION     0.45     1.33     7.36     0  02:23        1.22
  YS02001788           JUNCTION     0.37     1.16     7.13     0  02:23        1.08
  YS02001790           JUNCTION     0.47     1.96     7.60     0  06:10        1.24
  YS02001791           JUNCTION     0.40     2.70     8.17     0  02:21        1.22
  YS02001793           JUNCTION     0.51     2.16     6.99     0  04:35        1.79
  WSC                  OUTFALL      0.37     0.46     1.13     0  03:08        0.46
  JK-storage           STORAGE      2.28     5.80     6.60     0  02:22        5.80
  CC-storage           STORAGE      1.13     1.38     8.38     0  02:59        1.38
  XR-storage           STORAGE      6.39     7.72     5.72     0  02:59        7.72
  
  
  *******************
  Node Inflow Summary
  *******************
  
  -------------------------------------------------------------------------------------------------
                                  Maximum  Maximum                  Lateral       Total        Flow
                                  Lateral    Total  Time of Max      Inflow      Inflow     Balance
                                   Inflow   Inflow   Occurrence      Volume      Volume       Error
  Node                 Type           LPS      LPS  days hr:min    10^6 ltr    10^6 ltr     Percent
  -------------------------------------------------------------------------------------------------
  WS02001211           JUNCTION      7.35   389.51     0  03:13       0.207        10.2       0.394
  WS02001212           JUNCTION      0.00   391.38     0  03:13           0        10.2       0.236
  WS02001213           JUNCTION      0.00   393.19     0  05:50           0        10.1       0.276
  WS02003069           JUNCTION      0.32  1227.39     0  03:06     0.00902        20.6       0.157
  WS02003072           JUNCTION      0.00  1227.29     0  03:07           0        20.6       0.192
  WS02003073           JUNCTION      1.82  1229.17     0  03:07      0.0514        20.6       0.219
  WS02003060           JUNCTION     16.53  1227.02     0  03:06       0.466        20.6       0.148
  WS02003066           JUNCTION      0.00   829.88     0  03:05           0        10.1       0.040
  WS02003059           JUNCTION      0.00   396.44     0  05:50           0        10.1       0.386
  WS02003067           JUNCTION      0.00   829.77     0  03:04           0        10.1       0.084
  WS02004401           JUNCTION      0.00   831.02     0  03:03           0        10.3       0.186
  WS02004402           JUNCTION      0.00   831.48     0  03:03           0        10.3       0.177
  WS02004403           JUNCTION      0.00   831.27     0  03:03           0        10.3       0.162
  WS02004404           JUNCTION      0.16   831.80     0  03:03     0.00457        10.3       0.125
  WS02004406           JUNCTION      0.00   831.49     0  03:03           0        10.3       0.301
  WS02004409           JUNCTION      0.00   830.55     0  03:03           0        10.2       0.135
  WS02004410           JUNCTION      0.00   830.13     0  03:04           0        10.2       0.157
  WS02004411           JUNCTION      0.00   829.92     0  03:04           0        10.2       0.163
  WS02004412           JUNCTION      0.00   829.80     0  03:04           0        10.2       0.180
  WS02004413           JUNCTION      0.00   829.77     0  03:04           0        10.2       0.273
  WS02004405           JUNCTION      0.04   832.62     0  03:03     0.00107        10.3       0.188
  WS02006109           JUNCTION      1.23   818.31     0  03:02      0.0347        10.4       0.172
  WS02006110           JUNCTION      0.00   818.42     0  03:02           0        10.4       0.168
  WS02006111           JUNCTION      0.00   817.41     0  03:02           0        10.3       0.029
  WS02006112           JUNCTION     16.72   830.81     0  03:03      0.0747        10.4       0.241
  WS02006113           JUNCTION      0.00   818.18     0  03:02           0        10.3       0.082
  WS02006115           JUNCTION      0.00   830.94     0  03:03           0        10.4       0.168
  WS02006116           JUNCTION      0.00   831.05     0  03:03           0        10.4       0.166
  WS02006230           JUNCTION     10.28   537.71     0  06:22        0.29         8.2       0.146
  WS02006231           JUNCTION      0.00   527.62     0  06:22           0        7.92       0.100
  WS02006232           JUNCTION      0.00   528.42     0  06:22           0        7.94       0.189
  WS02006234           JUNCTION      0.00   529.78     0  06:22           0        7.94       0.074
  WS02006235           JUNCTION      0.00   535.15     0  06:22           0        7.99       0.118
  WS02006238           JUNCTION      0.00   419.86     0  07:20           0        4.76       0.034
  WS02006240           JUNCTION      0.00   418.22     0  07:20           0        4.74       0.205
  WS02006242           JUNCTION      0.00   417.89     0  07:20           0        4.74       0.267
  WS02006243           JUNCTION      0.00   417.35     0  07:20           0        4.74       0.060
  WS02006245           JUNCTION      0.00   416.86     0  07:20           0        4.75       0.274
  WS02006247           JUNCTION      0.00   416.91     0  07:20           0        4.75       0.144
  WS02006248           JUNCTION      0.00   418.13     0  07:20           0        4.76       0.063
  WS02006249           JUNCTION      0.00   487.38     0  03:00           0        5.27       0.200
  WS02006239           JUNCTION      0.00   419.20     0  07:20           0        4.75       0.067
  WS02006251           JUNCTION      0.08   487.36     0  03:01     0.00217        5.32       0.144
  WS02006252           JUNCTION      0.00   400.00     0  03:00           0        4.86       0.007
  WS02006253           JUNCTION      1.99   131.79     0  04:53     0.00928       0.463       0.633
  WS02006256           JUNCTION      0.00   983.00     0  00:00           0          10       0.002
  WS02004138           JUNCTION      0.00   380.00     0  00:00           0          10       0.065
  WS02004139           JUNCTION      0.32   396.51     0  00:00     0.00905          10       0.448
  WS02004407           JUNCTION      0.00   831.05     0  03:03           0        10.2       0.060
  WS02006228           JUNCTION      0.00   817.18     0  03:02           0        10.3       0.131
  WS02006229           JUNCTION      0.00   817.41     0  03:02           0        10.4       0.118
  WS02006280           JUNCTION      0.00   413.62     0  03:02           0        2.17       0.006
  WS02006284           JUNCTION      0.10   413.57     0  03:02      0.0027        2.17       0.041
  WS02006287           JUNCTION      0.00   413.22     0  03:01           0        2.17       0.033
  WSF200               JUNCTION      0.00   829.93     0  03:05           0        10.1       0.036
  HS02004901           JUNCTION     20.36    20.36     0  03:01      0.0902      0.0904       1.990
  HS02004881           JUNCTION      7.95    84.19     0  03:01      0.0378        0.41       0.107
  HS02004876           JUNCTION     14.96    76.75     0  03:01      0.0728       0.373       0.148
  HS02004870           JUNCTION     14.89    62.14     0  03:01      0.0716         0.3       0.037
  HS02004862           JUNCTION     15.28    47.68     0  03:01      0.0788       0.229       0.077
  HS02004856           JUNCTION     11.18    32.72     0  03:01      0.0539       0.152       0.963
  HS02004852           JUNCTION      0.00    21.94     0  03:01           0      0.0979       0.059
  HS02004848           JUNCTION     34.61    34.61     0  03:01       0.174       0.174       0.028
  HS02004842           JUNCTION      0.00    12.41     0  03:01           0      0.0895      16.997
  HS02004837           JUNCTION     31.84    43.95     0  03:01       0.303        0.38       0.214
  HS02004830           JUNCTION      0.15    43.86     0  03:01     0.00423        0.37       0.334
  HS02004824           JUNCTION     42.39    85.90     0  03:01       0.225       0.594       0.091
  HS02004817           JUNCTION      0.60    86.28     0  03:01      0.0169        0.61       2.809
  HS02004807           JUNCTION     27.35   112.30     0  03:01       0.131       0.726       0.604
  HS02004802           JUNCTION      0.00   111.37     0  03:01           0       0.723       0.549
  HS02004799           JUNCTION     22.08   258.93     0  03:01       0.107        1.24       0.223
  HS02004792           JUNCTION    102.90   237.98     0  03:01        0.47        1.14       0.036
  HS02004788           JUNCTION     34.16   135.92     0  03:01       0.199       0.669       0.059
  HS02004785           JUNCTION      0.15   103.52     0  03:01     0.00423       0.471       0.106
  HS02004777           JUNCTION      0.03   104.16     0  03:01    0.000846       0.472       1.115
  HS02004770           JUNCTION     85.35   105.10     0  03:01       0.385       0.473       0.659
  HS02004480           JUNCTION      0.00   302.45     0  03:01           0        1.46       0.077
  HS02004479           JUNCTION      0.00    44.90     0  03:02           0       0.232       0.317
  HS02004478           JUNCTION      0.00   413.08     0  03:01           0        2.17       0.014
  YS02001745           JUNCTION    336.84   336.84     0  03:01        2.69        2.69       0.337
  YS02001748           JUNCTION      0.04   445.74     0  02:28     0.00127        2.68       0.807
  YS02001751           JUNCTION      0.01   342.14     0  03:01     0.00031        2.66       0.899
  YS02001754           JUNCTION      0.26   342.98     0  03:01     0.00733        2.64       0.941
  YS02001762           JUNCTION      0.00   292.68     0  02:38           0        1.74       1.232
  YS02001765           JUNCTION      0.00   293.05     0  02:38           0        1.74       1.426
  YS02001767           JUNCTION      0.54   293.14     0  02:38      0.0151        1.77       2.055
  YS02001770           JUNCTION    415.94   533.15     0  03:01        3.01        3.17       1.006
  YS02001774           JUNCTION      0.00   533.66     0  03:01           0        1.54       1.660
  YS02001779           JUNCTION      0.01   534.28     0  03:01    0.000141        1.51       1.020
  YS02001882           JUNCTION      0.00    20.51     0  02:25           0      0.0281       9.224
  YS02001884           JUNCTION      0.00    41.74     0  02:25           0      0.0653      10.360
  YS02001759           JUNCTION    399.49   574.63     0  02:38        2.78        4.33       0.532
  YS02001887           JUNCTION    494.68   495.46     0  03:01        3.19        3.22       0.263
  YS02001890           JUNCTION      0.00   494.80     0  03:00           0        3.18       0.298
  YS02001898           JUNCTION      0.00   495.21     0  03:01           0        3.16       0.092
  YS02001901           JUNCTION      0.00   495.29     0  03:01           0        3.16       0.231
  YS02001904           JUNCTION      0.00   495.40     0  03:01           0        3.16       0.202
  YS02001907           JUNCTION      0.00   949.06     0  03:01           0        7.02       0.348
  YS02001910           JUNCTION      0.00   454.74     0  03:01           0        3.87       0.304
  YS02001915           JUNCTION    296.36   454.37     0  03:01        2.25        3.88       0.164
  YS02001918           JUNCTION      0.00   211.67     0  03:30           0        1.64       0.123
  YS02001619           JUNCTION    290.53   290.53     0  03:01        2.24        2.24       0.548
  YS02001629           JUNCTION      0.00   188.51     0  02:35           0        1.69       1.739
  YS02001641           JUNCTION      0.00   397.38     0  02:35           0        4.25       0.494
  YS02001644           JUNCTION    321.01  1311.28     0  03:00        2.59        9.66       0.267
  YS02001652           JUNCTION      0.00   381.31     0  03:01           0        2.35       0.995
  YS02001655           JUNCTION      0.15   380.43     0  03:01     0.00434        2.37       1.072
  YS02001920           JUNCTION      2.87   193.32     0  03:29      0.0809        1.63       0.186
  YS02001923           JUNCTION      0.04   167.13     0  02:48     0.00106        1.55       0.057
  YS02001926           JUNCTION      0.05   157.65     0  03:01     0.00147        1.56       0.209
  YS02001929           JUNCTION    151.13   151.13     0  03:01        1.56        1.56       0.037
  YS02001658           JUNCTION      0.00   577.77     0  02:24           0         2.4       0.933
  YS02001661           JUNCTION      0.00   658.11     0  02:38           0        2.69      -0.461
  YS02001664           JUNCTION    361.21   372.06     0  02:37        2.38        2.68       0.163
  YS02001622           JUNCTION      0.00   291.11     0  03:00           0        2.22       1.449
  YS02001633           JUNCTION    326.74   396.59     0  02:35        2.66        4.31       0.749
  YS02001649           JUNCTION      0.00   827.22     0  02:35           0        5.84       0.637
  YS02001757           JUNCTION      0.00  1576.51     0  02:35           0        9.72       0.956
  YS02001895           JUNCTION      0.00   495.03     0  03:01           0        3.17       0.169
  YS02001625           JUNCTION      0.00   290.97     0  03:01           0        2.19       1.803
  YS02163301           JUNCTION      0.00   205.04     0  02:25           0        1.67       1.458
  YS02163601           JUNCTION      0.11   396.89     0  02:35      0.0031        4.27       0.710
  YS02164001           JUNCTION      0.00   397.02     0  02:35           0        4.25       0.471
  YS02001647           JUNCTION      0.00   609.14     0  03:01           0        4.95       0.571
  YSB1154              JUNCTION     26.18    26.18     0  03:01       0.129        0.13       1.130
  YSB6556              JUNCTION      0.00    25.82     0  03:01           0        0.13       0.969
  YSB1174              JUNCTION     20.52    20.52     0  03:01      0.0948      0.0953       1.368
  YSB1171              JUNCTION      0.00    45.30     0  03:01           0       0.231       2.821
  YS02006553           JUNCTION      0.00   703.98     0  03:31           0         6.6       0.238
  YS02006561           JUNCTION      0.00  1023.71     0  02:47           0        9.47       0.004
  YS02006556           JUNCTION      0.00   703.82     0  03:31           0         6.6       0.174
  YS02006558           JUNCTION    433.40  1024.30     0  02:47        2.93         9.5       0.058
  YS02001783           JUNCTION      0.00  1024.07     0  02:47           0        9.47       0.026
  YS02001784           JUNCTION      1.06  1024.87     0  02:47      0.0299         9.5       0.036
  YS02001786           JUNCTION      0.06  1024.80     0  02:47     0.00159         9.5       0.037
  YS02001788           JUNCTION      0.07  1025.04     0  02:47       0.002         9.5       0.023
  YS02001790           JUNCTION      0.15  1024.84     0  02:47     0.00437         9.5       0.021
  YS02001791           JUNCTION      0.00  1024.95     0  02:47           0         9.5       0.007
  YS02001793           JUNCTION      0.00  1025.13     0  02:47           0         9.5      -0.038
  WSC                  OUTFALL       0.00  1229.26     0  03:08           0        20.6       0.000
  JK-storage           STORAGE       0.00  1024.81     0  02:47           0        9.65     -10.850
  CC-storage           STORAGE       0.00  1577.11     0  02:35           0        8.18       0.736
  XR-storage           STORAGE     844.76   844.76     0  03:01        11.8        12.4      -0.005
  
  
  **********************
  Node Surcharge Summary
  **********************
  
  Surcharging occurs when water rises above the top of the highest conduit.
  ---------------------------------------------------------------------
                                               Max. Height   Min. Depth
                                   Hours       Above Crown    Below Rim
  Node                 Type      Surcharged         Meters       Meters
  ---------------------------------------------------------------------
  WS02004401           JUNCTION        0.34          0.138        1.522
  WS02004402           JUNCTION        0.40          0.138        1.602
  WS02004403           JUNCTION        0.41          0.123        1.907
  WS02004404           JUNCTION        0.83          0.178        2.602
  WS02004406           JUNCTION        0.69          0.117        2.333
  WS02004405           JUNCTION        0.77          0.157        2.643
  WS02006109           JUNCTION        4.54          0.490        1.330
  WS02006110           JUNCTION        2.38          0.243        1.607
  WS02006112           JUNCTION        3.10          0.416        1.264
  WS02006115           JUNCTION        0.21          0.079        2.171
  WS02006116           JUNCTION        0.23          0.084        2.206
  WS02006230           JUNCTION        1.92          0.440        1.130
  WS02006231           JUNCTION        2.62          0.504        1.026
  WS02006232           JUNCTION        4.26          0.665        0.815
  WS02006234           JUNCTION        3.56          0.597        0.643
  WS02006235           JUNCTION        3.82          0.658        0.632
  WS02006238           JUNCTION        3.90          0.672        0.758
  WS02006240           JUNCTION        3.54          0.571        0.819
  WS02006242           JUNCTION        3.71          0.603        0.217
  WS02006243           JUNCTION        3.01          0.499        0.271
  WS02006245           JUNCTION        2.84          0.463        0.387
  WS02006247           JUNCTION        2.87          0.463        0.297
  WS02006248           JUNCTION        2.41          0.375        0.005
  WS02006249           JUNCTION        2.50          0.390        0.000
  WS02006239           JUNCTION        3.67          0.606        0.684
  WS02006251           JUNCTION        1.50          0.371        0.809
  WS02006252           JUNCTION        2.69          0.482        0.618
  WS02006253           JUNCTION        1.54          0.437        2.043
  WS02006256           JUNCTION        6.71          2.050        0.000
  WS02006228           JUNCTION        4.52          0.607        1.593
  YS02001748           JUNCTION        5.30          0.305        0.885
  YS02001751           JUNCTION        5.48          0.551        0.649
  YS02001754           JUNCTION        5.69          0.773        0.377
  YS02001762           JUNCTION        5.87          1.036        0.114
  YS02001765           JUNCTION        5.84          0.979        0.121
  YS02001767           JUNCTION        5.81          0.934        0.096
  YS02001770           JUNCTION        5.80          0.887        0.033
  YS02001774           JUNCTION        5.86          0.979        0.071
  YS02001779           JUNCTION        5.67          0.680        0.000
  YS02001882           JUNCTION        0.94          0.619        0.211
  YS02001884           JUNCTION        0.96          0.661        0.209
  YS02001759           JUNCTION        5.89          1.073        0.137
  YS02001887           JUNCTION        1.04          0.745        0.205
  YS02001890           JUNCTION        1.07          0.760        0.000
  YS02001898           JUNCTION        0.90          0.530        0.210
  YS02001901           JUNCTION        1.00          0.674        0.196
  YS02001904           JUNCTION        0.98          0.637        0.213
  YS02001907           JUNCTION        1.81          0.950        0.000
  YS02001910           JUNCTION        1.11          0.771        0.329
  YS02001915           JUNCTION        0.92          0.576        0.424
  YS02001918           JUNCTION        0.70          0.236        0.574
  YS02001619           JUNCTION        5.48          0.475        0.135
  YS02001629           JUNCTION        5.49          0.466        0.004
  YS02001641           JUNCTION        5.85          0.935        0.165
  YS02001644           JUNCTION        5.85          0.920        0.000
  YS02001652           JUNCTION        5.73          1.107        0.023
  YS02001655           JUNCTION        5.51          1.200        0.000
  YS02001920           JUNCTION        0.73          0.311        0.829
  YS02001658           JUNCTION        5.33          1.300        0.000
  YS02001661           JUNCTION        0.22          1.390        0.000
  YS02001622           JUNCTION        5.52          0.499        0.121
  YS02001633           JUNCTION        5.83          0.929        0.131
  YS02001649           JUNCTION        5.88          1.050        0.000
  YS02001757           JUNCTION        5.98          1.173        0.037
  YS02001895           JUNCTION        0.91          0.561        0.189
  YS02001625           JUNCTION        5.76          0.780        0.000
  YS02163301           JUNCTION        5.81          0.883        0.147
  YS02163601           JUNCTION        5.87          0.995        0.085
  YS02164001           JUNCTION        5.83          0.925        0.175
  YS02001647           JUNCTION        5.75          0.805        0.095
  YS02006553           JUNCTION        1.87          0.965        0.225
  YS02006561           JUNCTION        0.73          0.263        0.887
  YS02006556           JUNCTION        1.35          0.881        0.469
  YS02006558           JUNCTION        1.31          0.860        0.540
  YS02001783           JUNCTION        1.23          0.773        0.827
  YS02001784           JUNCTION        1.21          0.675        0.815
  YS02001786           JUNCTION        1.16          0.533        0.897
  YS02001788           JUNCTION        1.11          0.357        1.123
  YS02001790           JUNCTION        1.75          1.157        0.000
  YS02001791           JUNCTION        1.83          1.897        0.023
  YS02001793           JUNCTION        2.08          1.160        1.440
  
  
  *********************
  Node Flooding Summary
  *********************
  
  Flooding refers to all water that overflows a node, whether it ponds or not.
  --------------------------------------------------------------------------
                                                             Total   Maximum
                                 Maximum   Time of Max       Flood    Ponded
                        Hours       Rate    Occurrence      Volume     Depth
  Node                 Flooded       LPS   days hr:min    10^6 ltr    Meters
  --------------------------------------------------------------------------
  WS02006249              1.42    264.87      0  03:01       0.502     0.000
  WS02006256              3.96    978.40      0  00:00       6.747     0.000
  YS02001779              2.58    534.00      0  03:01       1.491     0.000
  YS02001890              0.01      1.17      0  03:00       0.000     0.000
  YS02001907              0.55    399.15      0  03:01       0.410     0.000
  YS02001644              3.49   1311.04      0  03:00       7.517     0.000
  YS02001655              0.01     10.60      0  02:42       0.000     0.000
  YS02001658              0.01     12.83      0  02:42       0.000     0.000
  YS02001661              0.01    138.56      0  02:42       0.000     0.000
  YS02001649              0.06     46.02      0  02:42       0.002     0.000
  YS02001625              1.19    236.16      0  03:01       0.464     0.000
  YS02001790              0.01     98.24      0  06:10       0.000     0.000
  JK-storage              0.64    561.84      0  02:24       0.663     0.000
  XR-storage              2.98    464.71      0  03:01       1.762     0.000
  
  
  **********************
  Storage Volume Summary
  **********************
  
  --------------------------------------------------------------------------------------------------
                         Average     Avg  Evap Exfil       Maximum     Max    Time of Max    Maximum
                          Volume    Pcnt  Pcnt  Pcnt        Volume    Pcnt     Occurrence    Outflow
  Storage Unit           1000 m3    Full  Loss  Loss       1000 m3    Full    days hr:min        LPS
  --------------------------------------------------------------------------------------------------
  JK-storage               0.115      39     0     0         0.291     100       0  02:22     983.00
  CC-storage               3.152      20     0     0         3.844      25       0  02:59     400.00
  XR-storage               0.767      83     0     0         0.926     100       0  02:59     380.00
  
  
  ***********************
  Outfall Loading Summary
  ***********************
  
  ---------------------------------------------------------------------------------------------------------------------------------
                         Flow       Avg       Max       Total         Total         Total         Total         Total         Total
                         Freq      Flow      Flow      Volume           COD            SS            TN            TP         NH4-N
  Outfall Node           Pcnt       LPS       LPS    10^6 ltr            kg            kg            kg            kg            kg
  ---------------------------------------------------------------------------------------------------------------------------------
  WSC                   99.98    834.12   1229.26      20.560      2397.964      4104.524       153.497        18.052        92.889
  ---------------------------------------------------------------------------------------------------------------------------------
  System                99.98    834.12   1229.26      20.560      2397.964      4104.524       153.497        18.052        92.889
  
  
  ********************
  Link Flow Summary
  ********************
  
  -----------------------------------------------------------------------------
                                 Maximum  Time of Max   Maximum    Max/    Max/
                                  |Flow|   Occurrence   |Veloc|    Full    Full
  Link                 Type          LPS  days hr:min     m/sec    Flow   Depth
  -----------------------------------------------------------------------------
  WS02003066WSF200     CONDUIT    829.93     0  03:05      2.95    0.14    0.30
  WS02006287WS02006284 CONDUIT    413.47     0  03:02      2.04    0.19    0.30
  WS02006284WS02006280 CONDUIT    413.62     0  03:02      2.28    0.17    0.28
  WS02006280WS02006229 CONDUIT    413.62     0  03:02      3.59    0.09    0.25
  WS02006229WS02006228 CONDUIT    817.18     0  03:02      1.63    2.71    1.00
  WS02006256WS02006235 CONDUIT    288.60     0  00:00      4.23    3.05    1.00
  WS02006253WS02006251 CONDUIT    129.95     0  04:53      0.57    0.39    1.00
  WS02006252WS02006251 CONDUIT    402.96     0  04:55      3.21    1.48    1.00
  WS02006251WS02006249 CONDUIT    487.38     0  03:00      1.27    1.41    1.00
  WS02006249WS02006248 CONDUIT    418.13     0  07:20      1.19    2.29    1.00
  WS02006248WS02006247 CONDUIT    416.91     0  07:20      1.17    0.91    1.00
  WS02006247WS02006245 CONDUIT    416.86     0  07:20      1.14    3.31    1.00
  WS02006245WS02006243 CONDUIT    417.35     0  07:20      1.19    1.23    1.00
  WS02006243WS02006242 CONDUIT    417.89     0  07:20      1.09    0.89    1.00
  WS02006242WS02006240 CONDUIT    418.22     0  07:20      1.09    1.66    1.00
  WS02006240WS02006239 CONDUIT    419.20     0  07:20      1.09    1.32    1.00
  WS02006239WS02006238 CONDUIT    419.86     0  07:20      1.09    1.34    1.00
  WS02006238WS02006235 CONDUIT    420.61     0  07:20      1.46    0.94    1.00
  WS02006235WS02006234 CONDUIT    529.78     0  06:22      1.38    5.59    1.00
  WS02006234WS02006232 CONDUIT    528.42     0  06:22      1.39    1.07    1.00
  WS02006232WS02006231 CONDUIT    527.62     0  06:22      1.37    1.11    1.00
  WS02006231WS02006230 CONDUIT    527.43     0  06:22      1.49    8.00    1.00
  WS02006230WS02006229 CONDUIT    539.02     0  06:22      1.40   12.00    1.00
  WS02006228WS02006109 CONDUIT    817.08     0  03:02      1.63    3.57    1.00
  WS02006116WS02004401 CONDUIT    831.02     0  03:03      1.06    1.15    1.00
  WS02006115WS02006116 CONDUIT    831.05     0  03:03      1.06    1.07    1.00
  WS02006113WS02006111 CONDUIT    817.41     0  03:02      2.61    0.98    0.81
  WS02006112WS02006115 CONDUIT    830.94     0  03:03      1.06    0.49    1.00
  WS02006111WS02006112 CONDUIT    818.33     0  03:03      1.73    0.39    0.90
  WS02006110WS02006113 CONDUIT    818.18     0  03:02      1.74    0.74    0.90
  WS02006109WS02006110 CONDUIT    818.42     0  03:02      1.63    1.57    1.00
  WS02004411WS02004412 CONDUIT    829.80     0  03:04      1.16    1.18    0.85
  WS02004401WS02004402 CONDUIT    831.48     0  03:03      1.06    1.00    1.00
  WS02004413WS02003067 CONDUIT    829.77     0  03:04      1.42    0.36    0.70
  WS02004412WS02004413 CONDUIT    829.77     0  03:04      1.10    0.56    0.91
  WS02004410WS02004411 CONDUIT    829.92     0  03:04      1.15    1.13    0.86
  WS02004409WS02004410 CONDUIT    830.13     0  03:04      1.15    1.07    0.87
  WS02004407WS02004409 CONDUIT    830.55     0  03:03      1.64    0.29    0.62
  WS02004406WS02004407 CONDUIT    831.05     0  03:03      1.45    0.37    0.69
  WS02004405WS02004406 CONDUIT    831.49     0  03:03      1.06    1.64    1.00
  WS02004404WS02004405 CONDUIT    832.58     0  03:03      1.06    8.16    1.00
  WS02004403WS02004404 CONDUIT    831.63     0  03:03      1.06    0.60    1.00
  WS02004402WS02004403 CONDUIT    831.27     0  03:03      1.06    1.19    1.00
  WS02004139WS02001211 CONDUIT    382.16     0  03:13      0.90    0.48    0.63
  WS02004138WS02004139 CONDUIT    396.19     0  00:00      3.65    0.08    0.46
  WS02003067WS02003066 CONDUIT    829.88     0  03:05      1.54    0.27    0.48
  WS02001213WS02003059 CONDUIT    396.44     0  05:50      0.88    0.65    0.84
  WS02001212WS02001213 CONDUIT    393.19     0  05:50      1.32    0.61    0.53
  WS02001211WS02001212 CONDUIT    391.38     0  03:13      0.78    0.30    0.69
  WS02003072WS02003073 CONDUIT   1227.35     0  03:07      1.90    2.65    0.56
  WS02003069WS02003072 CONDUIT   1227.29     0  03:07      1.77    0.59    0.59
  WS02003060WS02003069 CONDUIT   1227.07     0  03:06      1.99    0.48    0.54
  WS02003059WS02003060 CONDUIT    400.90     0  05:50      0.95    0.26    0.74
  HS02004901HS02004770 CONDUIT     20.53     0  03:01      0.07    0.08    0.42
  HS02004876HS02004881 CONDUIT     76.55     0  03:01      0.95    0.81    0.12
  HS02004870HS02004876 CONDUIT     61.90     0  03:01      0.65    0.04    0.14
  HS02004842HS02004848 CONDUIT     12.41     0  03:01      0.06    0.01    0.31
  HS02004837HS02004842 CONDUIT     12.98     0  03:02      0.42    0.01    0.32
  HS02004830HS02004837 CONDUIT     43.71     0  03:01      0.57    0.04    0.11
  HS02004824HS02004830 CONDUIT     43.66     0  03:01      0.59    0.06    0.11
  HS02004817HS02004824 CONDUIT     85.68     0  03:01      0.26    0.04    0.48
  HS02004770HS02004777 CONDUIT    104.13     0  03:01      0.35    0.19    0.43
  HS02004799HS02004480 CONDUIT    258.30     0  03:01      0.83    0.33    0.44
  HS02004792HS02004799 CONDUIT    237.05     0  03:01      0.95    0.15    0.36
  HS02004788HS02004792 CONDUIT    135.43     0  03:01      1.06    0.09    0.18
  HS02004785HS02004788 CONDUIT    103.22     0  03:02      0.71    0.78    0.21
  HS02004777HS02004785 CONDUIT    103.37     0  03:01      0.42    0.13    0.35
  HS02004480HS02004478 CONDUIT    302.29     0  03:01      1.26    1.27    0.34
  HS02004479HS02004480 CONDUIT     46.29     0  03:02      0.32    0.04    0.43
  HS02004862HS02004870 CONDUIT     47.43     0  03:01      0.66    0.05    0.10
  HS02004848HS02004852 CONDUIT     21.94     0  03:01      0.45    0.02    0.07
  HS02004856HS02004862 CONDUIT     32.47     0  03:01      0.48    0.03    0.10
  HS02004852HS02004856 CONDUIT     21.85     0  03:02      0.25    0.02    0.13
  HS02004802HS02004478 CONDUIT    111.52     0  03:02      0.45    0.10    0.36
  HS02004478WS02006287 CONDUIT    413.22     0  03:01      1.75    0.12    0.26
  HS02004817HS02004807 CONDUIT     86.14     0  03:01      0.19    0.05    0.63
  HS02004807HS02004802 CONDUIT    111.37     0  03:01      0.38    0.21    0.42
  YS02001759YS02001757 CONDUIT    574.11     0  02:38      0.73    0.41    1.00
  YS02001762YS02001759 CONDUIT    292.59     0  02:38      0.37    0.34    1.00
  YS02001765YS02001762 CONDUIT    292.68     0  02:38      0.37    0.27    1.00
  YS02001770YS02001767 CONDUIT    292.60     0  02:38      0.37    1.16    1.00
  YS02001774YS02001770 CONDUIT    533.66     0  03:01      0.68    0.34    1.00
  YS02001779YS02001774 CONDUIT    534.27     0  03:01      0.68    0.27    1.00
  YS02001649YS02001757 CONDUIT    828.56     0  02:35      1.05    0.50    1.00
  YS02001767YS02001765 CONDUIT    293.05     0  02:38      0.37    0.37    1.00
  YS02006561YS02001783 CONDUIT   1024.07     0  02:47      2.15    0.53    1.00
  YS02001783YS02001784 CONDUIT   1023.81     0  02:47      2.04    1.41    1.00
  YS02001784YS02001785 CONDUIT   1024.74     0  02:47      2.04    2.38    1.00
  YS02001788YS02001790 CONDUIT   1024.68     0  02:47      2.44    0.76    1.00
  YS02001790YS02001791 CONDUIT   1024.95     0  02:47      2.91    1.12    1.00
  YS02001791YS02001793 CONDUIT   1025.13     0  02:47      5.75    0.44    1.00
  YS02001910YS02001907 CONDUIT    454.46     0  03:01      0.58    0.26    1.00
  YS02001786YS02001788 CONDUIT   1024.97     0  02:47      2.31    1.97    1.00
  YS02001915YS02001910 CONDUIT    454.74     0  03:01      0.59    0.23    1.00
  YS02001918YS02001915 CONDUIT    247.14     0  03:31      0.44    0.14    1.00
  YS02001923YS02001920 CONDUIT    190.45     0  03:29      0.71    0.09    1.00
  YS02001926YS02001923 CONDUIT    167.09     0  02:48      0.83    0.24    0.86
  YS02001929YS02001926 CONDUIT    157.59     0  03:01      0.89    0.07    0.75
  YS02001920YS02001918 CONDUIT    211.67     0  03:30      0.70    0.20    1.00
  YS02001629YS02163301 CONDUIT    205.04     0  02:25      0.26    0.25    1.00
  YS02001619YS02001622 CONDUIT    291.11     0  03:00      0.61    0.43    1.00
  YS02001622YS02001625 CONDUIT    290.97     0  03:01      0.37    0.16    1.00
  YS02001625YS02001629 CONDUIT    188.51     0  02:35      0.24    0.09    1.00
  YS02163301YS02001633 CONDUIT    205.14     0  02:25      0.26    0.19    1.00
  YS02163601YS02164001 CONDUIT    397.02     0  02:35      0.51    0.35    1.00
  YS02164001YS02001641 CONDUIT    397.38     0  02:35      0.51    0.54    1.00
  YS02001641YS02001644 CONDUIT    397.09     0  02:35      0.51    1.28    1.00
  YS02001647YS02001649 CONDUIT    609.14     0  03:01      0.78    0.32    1.00
  YS02006553YS02006556 CONDUIT    703.82     0  03:31      0.90    0.60    1.00
  YS02006556YS02006558 CONDUIT    703.99     0  03:31      0.90    0.56    1.00
  YSB6556YSB1171       CONDUIT     25.76     0  03:03      0.09    0.03    0.70
  YS02001907YS02006553 CONDUIT    703.98     0  03:31      0.78    0.83    1.00
  YS02006558YS02006561 CONDUIT   1023.71     0  02:47      3.62    2.26    1.00
  YS02001633YS02163601 CONDUIT    396.78     0  02:35      0.51    0.42    1.00
  YS02001644YS02001647 CONDUIT    610.95     0  03:01      0.78    0.36    1.00
  YS02001745YS02001748 CONDUIT    445.70     0  02:28      1.47    0.17    0.96
  YS02001748YS02001751 CONDUIT    342.13     0  03:01      1.06    0.17    1.00
  YS02001751YS02001754 CONDUIT    342.72     0  03:01      0.92    0.17    1.00
  YS02001754YS02001757 CONDUIT    342.42     0  03:01      0.44    0.14    1.00
  YS02001882YS02001884 CONDUIT     20.51     0  02:25      0.13    0.02    1.00
  YS02001884YS02001887 CONDUIT     41.74     0  02:25      0.09    0.06    1.00
  YS02001890YS02001895 CONDUIT    495.03     0  03:01      0.63    0.23    1.00
  YS02001895YS02001898 CONDUIT    495.21     0  03:01      0.63    0.86    1.00
  YS02001898YS02001901 CONDUIT    495.29     0  03:01      0.63    0.32    1.00
  YS02001901YS02001904 CONDUIT    495.40     0  03:01      0.63    0.77    1.00
  YS02001904YS02001907 CONDUIT    495.74     0  03:01      0.63    0.17    1.00
  YS02001887YS02001890 CONDUIT    494.80     0  03:00      0.63    0.85    1.00
  YS02001652YS02001649 CONDUIT    382.69     0  03:01      0.63    0.19    1.00
  YS02001655YS02001652 CONDUIT    381.31     0  03:01      0.98    0.19    1.00
  YS02001658YS02001655 CONDUIT    380.28     0  03:01      1.22    0.16    1.00
  YS02001661YS02001658 CONDUIT    577.77     0  02:24      1.55    0.23    1.00
  YS02001664YS02001661 CONDUIT    658.11     0  02:38      1.43    0.21    0.76
  YSB1154YSB6556       CONDUIT     25.82     0  03:01      0.17    0.05    0.59
  YSB1174YSB1171       CONDUIT     20.15     0  03:01      0.07    0.03    0.70
  YSB1171HS02004479    CONDUIT     44.90     0  03:02      0.54    0.03    0.55
  HS02004881HS02006253 CONDUIT     84.62     0  02:56      2.09    0.02    0.53
  YS02001793JiankangQianchi CONDUIT   1024.81     0  02:47     16.71    0.08    1.00
  YS02001757CaochengTiaoxuchi CONDUIT   1577.11     0  02:35      2.02    0.69    1.00
  WSF200WS02003060     CONDUIT    830.08     0  03:05      1.85    0.18    0.42
  1                    CONDUIT   1229.26     0  03:08      3.51    0.43    0.46
  CC-Pump-1            PUMP       200.00     0  03:00              1.00
  CC-Pump-2            PUMP       200.00     0  03:00              1.00
  JK-Pump-1            PUMP       300.00     0  00:00              1.00
  JK-Pump-2            PUMP       683.00     0  00:00              1.00
  XR-Pump-1            PUMP        95.00     0  00:00              1.00
  XR-Pump-2            PUMP        95.00     0  00:00              1.00
  XR-Pump-3            PUMP        95.00     0  00:00              1.00
  XR-Pump-4            PUMP        95.00     0  00:00              1.00
  
  
  ***************************
  Flow Classification Summary
  ***************************
  
  -------------------------------------------------------------------------------------
                      Adjusted    ---------- Fraction of Time in Flow Class ---------- 
                       /Actual         Up    Down  Sub   Sup   Up    Down  Norm  Inlet 
  Conduit               Length    Dry  Dry   Dry   Crit  Crit  Crit  Crit  Ltd   Ctrl  
  -------------------------------------------------------------------------------------
  WS02003066WSF200        1.00   0.04  0.03  0.00  0.00  0.93  0.00  0.00  0.37  0.00
  WS02006287WS02006284    1.00   0.03  0.01  0.00  0.61  0.35  0.00  0.00  0.62  0.00
  WS02006284WS02006280    1.00   0.04  0.00  0.00  0.00  0.00  0.00  0.96  0.00  0.00
  WS02006280WS02006229    1.00   0.04  0.00  0.00  0.00  0.02  0.00  0.95  0.03  0.00
  WS02006229WS02006228    1.00   0.00  0.00  0.00  1.00  0.00  0.00  0.00  0.00  0.00
  WS02006256WS02006235    1.00   0.00  0.00  0.00  1.00  0.00  0.00  0.00  0.00  0.00
  WS02006253WS02006251    1.00   0.01  0.02  0.00  0.96  0.00  0.01  0.00  0.00  0.00
  WS02006252WS02006251    1.00   0.18  0.00  0.00  0.14  0.00  0.67  0.00  0.00  0.00
  WS02006251WS02006249    1.00   0.00  0.00  0.00  1.00  0.00  0.00  0.00  0.21  0.00
  WS02006249WS02006248    1.00   0.00  0.01  0.00  0.90  0.00  0.09  0.00  0.00  0.00
  WS02006248WS02006247    1.00   0.01  0.00  0.00  0.98  0.00  0.00  0.01  0.13  0.00
  WS02006247WS02006245    1.00   0.01  0.00  0.00  0.96  0.00  0.00  0.03  0.00  0.00
  WS02006245WS02006243    1.00   0.00  0.00  0.00  0.94  0.00  0.00  0.05  0.02  0.00
  WS02006243WS02006242    1.00   0.00  0.00  0.00  1.00  0.00  0.00  0.00  0.23  0.00
  WS02006242WS02006240    1.00   0.00  0.00  0.00  0.99  0.00  0.00  0.00  0.00  0.00
  WS02006240WS02006239    1.00   0.00  0.00  0.00  0.95  0.00  0.00  0.05  0.02  0.00
  WS02006239WS02006238    1.00   0.00  0.00  0.00  1.00  0.00  0.00  0.00  0.14  0.00
  WS02006238WS02006235    1.00   0.00  0.00  0.00  1.00  0.00  0.00  0.00  0.00  0.00
  WS02006235WS02006234    1.00   0.00  0.00  0.00  0.96  0.00  0.04  0.00  0.00  0.00
  WS02006234WS02006232    1.00   0.00  0.00  0.00  1.00  0.00  0.00  0.00  0.10  0.00
  WS02006232WS02006231    1.00   0.00  0.00  0.00  1.00  0.00  0.00  0.00  0.00  0.00
  WS02006231WS02006230    1.00   0.00  0.00  0.00  0.78  0.00  0.22  0.00  0.00  0.00
  WS02006230WS02006229    1.00   0.00  0.00  0.00  1.00  0.00  0.00  0.00  0.01  0.00
  WS02006228WS02006109    1.00   0.00  0.00  0.00  1.00  0.00  0.00  0.00  0.00  0.00
  WS02006116WS02004401    1.00   0.01  0.00  0.00  0.99  0.00  0.00  0.00  0.01  0.00
  WS02006115WS02006116    1.00   0.01  0.00  0.00  0.97  0.00  0.00  0.02  0.01  0.00
  WS02006113WS02006111    1.00   0.01  0.00  0.00  0.02  0.97  0.00  0.00  0.15  0.00
  WS02006112WS02006115    1.00   0.01  0.00  0.00  0.99  0.00  0.00  0.00  0.00  0.00
  WS02006111WS02006112    1.00   0.01  0.00  0.00  0.99  0.00  0.00  0.00  0.89  0.00
  WS02006110WS02006113    1.00   0.00  0.00  0.00  0.99  0.00  0.00  0.00  0.00  0.00
  WS02006109WS02006110    1.00   0.00  0.00  0.00  0.99  0.00  0.00  0.00  0.00  0.00
  WS02004411WS02004412    1.00   0.05  0.00  0.00  0.95  0.00  0.00  0.00  0.00  0.00
  WS02004401WS02004402    1.00   0.01  0.00  0.00  0.99  0.00  0.00  0.00  0.01  0.00
  WS02004413WS02003067    1.00   0.05  0.01  0.00  0.00  0.00  0.94  0.00  0.00  0.00
  WS02004412WS02004413    1.00   0.05  0.00  0.00  0.94  0.00  0.00  0.00  0.00  0.00
  WS02004410WS02004411    1.00   0.05  0.00  0.00  0.95  0.00  0.00  0.00  0.00  0.00
  WS02004409WS02004410    1.00   0.05  0.00  0.00  0.95  0.00  0.00  0.00  0.00  0.00
  WS02004407WS02004409    1.00   0.05  0.00  0.00  0.94  0.01  0.00  0.00  0.81  0.00
  WS02004406WS02004407    1.00   0.00  0.05  0.00  0.95  0.00  0.00  0.00  0.00  0.00
  WS02004405WS02004406    1.00   0.00  0.00  0.00  1.00  0.00  0.00  0.00  0.02  0.00
  WS02004404WS02004405    1.00   0.00  0.00  0.00  1.00  0.00  0.00  0.00  0.00  0.00
  WS02004403WS02004404    1.00   0.00  0.01  0.00  0.99  0.00  0.00  0.00  0.02  0.00
  WS02004402WS02004403    1.00   0.01  0.00  0.00  0.99  0.00  0.00  0.00  0.00  0.00
  WS02004139WS02001211    1.00   0.00  0.00  0.00  1.00  0.00  0.00  0.00  0.00  0.00
  WS02004138WS02004139    1.00   0.00  0.00  0.00  1.00  0.00  0.00  0.00  1.00  0.00
  WS02003067WS02003066    1.00   0.06  0.00  0.00  0.93  0.00  0.00  0.00  0.00  0.00
  WS02001213WS02003059    1.00   0.00  0.00  0.00  1.00  0.00  0.00  0.00  0.00  0.00
  WS02001212WS02001213    1.00   0.00  0.00  0.00  0.93  0.00  0.07  0.00  0.00  0.00
  WS02001211WS02001212    1.00   0.00  0.00  0.00  1.00  0.00  0.00  0.00  0.00  0.00
  WS02003072WS02003073    1.00   0.00  0.00  0.00  0.00  0.00  0.00  1.00  0.00  0.00
  WS02003069WS02003072    1.00   0.00  0.00  0.00  1.00  0.00  0.00  0.00  0.12  0.00
  WS02003060WS02003069    1.00   0.00  0.00  0.00  1.00  0.00  0.00  0.00  0.10  0.00
  WS02003059WS02003060    1.00   0.00  0.00  0.00  1.00  0.00  0.00  0.00  0.00  0.00
  HS02004901HS02004770    1.00   0.03  0.00  0.00  0.97  0.00  0.00  0.00  0.00  0.00
  HS02004876HS02004881    1.00   0.01  0.00  0.00  0.93  0.07  0.00  0.00  0.00  0.00
  HS02004870HS02004876    1.00   0.00  0.00  0.00  1.00  0.00  0.00  0.00  0.95  0.00
  HS02004842HS02004848    1.00   0.00  0.03  0.00  0.97  0.00  0.00  0.00  0.55  0.00
  HS02004837HS02004842    1.00   0.00  0.00  0.00  1.00  0.00  0.00  0.00  0.11  0.00
  HS02004830HS02004837    1.00   0.00  0.00  0.00  1.00  0.00  0.00  0.00  0.99  0.00
  HS02004824HS02004830    1.00   0.00  0.00  0.00  1.00  0.00  0.00  0.00  0.00  0.00
  HS02004817HS02004824    1.00   0.00  0.00  0.00  1.00  0.00  0.00  0.00  1.00  0.00
  HS02004770HS02004777    1.00   0.00  0.03  0.00  0.97  0.00  0.00  0.00  0.02  0.00
  HS02004799HS02004480    1.00   0.00  0.01  0.00  0.96  0.00  0.03  0.00  0.00  0.00
  HS02004792HS02004799    1.00   0.00  0.00  0.00  1.00  0.00  0.00  0.00  0.98  0.00
  HS02004788HS02004792    1.00   0.00  0.00  0.00  1.00  0.00  0.00  0.00  0.98  0.00
  HS02004785HS02004788    1.00   0.00  0.00  0.00  1.00  0.00  0.00  0.00  0.00  0.00
  HS02004777HS02004785    1.00   0.00  0.00  0.00  1.00  0.00  0.00  0.00  0.12  0.00
  HS02004480HS02004478    1.00   0.03  0.00  0.00  0.71  0.00  0.00  0.26  0.00  0.00
  HS02004479HS02004480    1.00   0.01  0.00  0.00  0.99  0.00  0.00  0.00  0.11  0.00
  HS02004862HS02004870    1.00   0.00  0.00  0.00  1.00  0.00  0.00  0.00  0.03  0.00
  HS02004848HS02004852    1.00   0.03  0.00  0.00  0.97  0.00  0.00  0.00  0.62  0.00
  HS02004856HS02004862    1.00   0.00  0.04  0.00  0.96  0.00  0.00  0.00  0.83  0.00
  HS02004852HS02004856    1.00   0.03  0.00  0.00  0.96  0.00  0.00  0.00  0.85  0.00
  HS02004802HS02004478    1.00   0.03  0.00  0.00  0.96  0.00  0.00  0.00  0.02  0.00
  HS02004478WS02006287    1.00   0.04  0.00  0.00  0.78  0.18  0.00  0.00  0.64  0.00
  HS02004817HS02004807    1.00   0.00  0.03  0.00  0.97  0.00  0.00  0.00  0.01  0.00
  HS02004807HS02004802    1.00   0.03  0.00  0.00  0.96  0.00  0.00  0.00  0.00  0.00
  YS02001759YS02001757    1.00   0.00  0.00  0.00  1.00  0.00  0.00  0.00  0.16  0.00
  YS02001762YS02001759    1.00   0.00  0.00  0.00  1.00  0.00  0.00  0.00  0.03  0.00
  YS02001765YS02001762    1.00   0.00  0.00  0.00  1.00  0.00  0.00  0.00  0.13  0.00
  YS02001770YS02001767    1.00   0.00  0.00  0.00  1.00  0.00  0.00  0.00  0.00  0.00
  YS02001774YS02001770    1.00   0.00  0.03  0.00  0.96  0.00  0.00  0.00  0.02  0.00
  YS02001779YS02001774    1.00   0.00  0.00  0.00  1.00  0.00  0.00  0.00  0.18  0.00
  YS02001649YS02001757    1.00   0.00  0.00  0.00  1.00  0.00  0.00  0.00  0.16  0.00
  YS02001767YS02001765    1.00   0.00  0.00  0.00  1.00  0.00  0.00  0.00  0.00  0.00
  YS02006561YS02001783    1.00   0.05  0.00  0.00  0.26  0.69  0.00  0.00  0.47  0.00
  YS02001783YS02001784    1.00   0.00  0.05  0.00  0.95  0.00  0.00  0.00  0.00  0.00
  YS02001784YS02001785    1.00   0.00  0.00  0.00  1.00  0.00  0.00  0.00  0.17  0.00
  YS02001788YS02001790    1.00   0.00  0.00  0.00  0.29  0.71  0.00  0.00  0.40  0.00
  YS02001790YS02001791    1.00   0.00  0.00  0.00  0.25  0.75  0.00  0.00  0.51  0.00
  YS02001791YS02001793    1.00   0.00  0.00  0.00  0.28  0.72  0.00  0.00  0.02  0.00
  YS02001910YS02001907    1.00   0.00  0.00  0.00  0.99  0.00  0.00  0.01  0.12  0.00
  YS02001786YS02001788    1.00   0.00  0.00  0.00  0.28  0.72  0.00  0.00  0.00  0.00
  YS02001915YS02001910    1.00   0.00  0.00  0.00  0.99  0.01  0.00  0.00  0.15  0.00
  YS02001918YS02001915    1.00   0.00  0.00  0.00  0.99  0.00  0.00  0.00  0.55  0.00
  YS02001923YS02001920    1.00   0.00  0.00  0.00  1.00  0.00  0.00  0.00  0.84  0.00
  YS02001926YS02001923    1.00   0.00  0.02  0.00  0.13  0.00  0.85  0.00  0.00  0.00
  YS02001929YS02001926    1.00   0.00  0.03  0.00  0.97  0.00  0.00  0.00  0.76  0.00
  YS02001920YS02001918    1.00   0.00  0.00  0.00  1.00  0.00  0.00  0.00  0.00  0.00
  YS02001629YS02163301    1.00   0.04  0.00  0.00  0.96  0.00  0.00  0.00  0.00  0.00
  YS02001619YS02001622    1.00   0.03  0.00  0.00  0.97  0.00  0.00  0.00  0.00  0.00
  YS02001622YS02001625    1.00   0.03  0.00  0.00  0.97  0.00  0.00  0.00  0.04  0.00
  YS02001625YS02001629    1.00   0.03  0.01  0.00  0.93  0.00  0.02  0.00  0.00  0.00
  YS02163301YS02001633    1.00   0.00  0.04  0.00  0.96  0.00  0.00  0.00  0.00  0.00
  YS02163601YS02164001    1.00   0.00  0.02  0.00  0.98  0.00  0.00  0.00  0.00  0.00
  YS02164001YS02001641    1.00   0.00  0.02  0.00  0.98  0.00  0.00  0.00  0.06  0.00
  YS02001641YS02001644    1.00   0.00  0.00  0.00  1.00  0.00  0.00  0.00  0.00  0.00
  YS02001647YS02001649    1.00   0.00  0.04  0.00  0.96  0.00  0.00  0.00  0.01  0.00
  YS02006553YS02006556    1.00   0.00  0.00  0.00  1.00  0.00  0.00  0.00  0.03  0.00
  YS02006556YS02006558    1.00   0.00  0.00  0.00  1.00  0.00  0.00  0.00  0.00  0.00
  YSB6556YSB1171          1.00   0.01  0.02  0.00  0.97  0.00  0.00  0.00  0.00  0.00
  YS02001907YS02006553    1.00   0.00  0.01  0.00  0.99  0.00  0.00  0.00  0.00  0.00
  YS02006558YS02006561    1.00   0.05  0.00  0.00  0.13  0.82  0.00  0.00  0.48  0.00
  YS02001633YS02163601    1.00   0.00  0.00  0.00  1.00  0.00  0.00  0.00  0.15  0.00
  YS02001644YS02001647    1.00   0.00  0.04  0.00  0.96  0.00  0.00  0.00  0.00  0.00
  YS02001745YS02001748    1.00   0.00  0.00  0.00  0.91  0.01  0.00  0.08  0.04  0.00
  YS02001748YS02001751    1.00   0.00  0.00  0.00  0.97  0.03  0.00  0.00  0.15  0.00
  YS02001751YS02001754    1.00   0.00  0.00  0.00  0.95  0.00  0.00  0.05  0.02  0.00
  YS02001754YS02001757    1.00   0.00  0.00  0.00  1.00  0.00  0.00  0.00  0.18  0.00
  YS02001882YS02001884    1.00   0.04  0.00  0.00  0.96  0.00  0.00  0.00  0.00  0.00
  YS02001884YS02001887    1.00   0.02  0.01  0.00  0.97  0.00  0.00  0.00  0.00  0.00
  YS02001890YS02001895    1.00   0.00  0.04  0.00  0.96  0.00  0.00  0.00  0.00  0.00
  YS02001895YS02001898    1.00   0.04  0.00  0.00  0.95  0.00  0.01  0.00  0.00  0.00
  YS02001898YS02001901    1.00   0.04  0.00  0.00  0.96  0.00  0.00  0.00  0.01  0.00
  YS02001901YS02001904    1.00   0.04  0.00  0.00  0.96  0.00  0.00  0.00  0.00  0.00
  YS02001904YS02001907    1.00   0.00  0.04  0.00  0.96  0.00  0.00  0.00  0.00  0.00
  YS02001887YS02001890    1.00   0.00  0.00  0.00  0.99  0.00  0.01  0.00  0.00  0.00
  YS02001652YS02001649    1.00   0.00  0.00  0.00  1.00  0.00  0.00  0.00  0.16  0.00
  YS02001655YS02001652    1.00   0.00  0.00  0.00  0.95  0.00  0.00  0.05  0.02  0.00
  YS02001658YS02001655    1.00   0.00  0.04  0.00  0.94  0.03  0.00  0.00  0.08  0.00
  YS02001661YS02001658    1.00   0.04  0.00  0.00  0.91  0.05  0.00  0.00  0.08  0.00
  YS02001664YS02001661    1.00   0.03  0.00  0.00  0.92  0.05  0.00  0.00  0.19  0.00
  YSB1154YSB6556          1.00   0.03  0.00  0.00  0.97  0.00  0.00  0.00  0.01  0.00
  YSB1174YSB1171          1.00   0.01  0.01  0.00  0.97  0.00  0.00  0.00  0.00  0.00
  YSB1171HS02004479       1.00   0.01  0.00  0.00  0.98  0.00  0.00  0.00  0.10  0.00
  HS02004881HS02006253    1.00   0.02  0.00  0.00  0.76  0.01  0.00  0.21  0.59  0.00
  YS02001793JiankangQianchi    1.00   0.00  0.00  0.00  0.62  0.38  0.00  0.00  0.42  0.00
  YS02001757CaochengTiaoxuchi    1.00   0.00  0.06  0.00  0.94  0.00  0.00  0.00  0.00  0.00
  WSF200WS02003060        1.00   0.00  0.04  0.00  0.95  0.01  0.00  0.00  0.32  0.00
  1                       1.00   0.00  0.00  0.00  0.00  1.00  0.00  0.00  0.50  0.00
  
  
  *************************
  Conduit Surcharge Summary
  *************************
  
  ----------------------------------------------------------------------------
                                                           Hours        Hours 
                         --------- Hours Full --------   Above Full   Capacity
  Conduit                Both Ends  Upstream  Dnstream   Normal Flow   Limited
  ----------------------------------------------------------------------------
  WS02006229WS02006228        4.52      4.57      4.52      4.98         4.52
  WS02006256WS02006235        5.75      5.75      6.71      4.31         0.01
  WS02006253WS02006251        2.38      2.38      2.48      0.01         0.01
  WS02006252WS02006251        2.06      2.06      2.69      2.45         0.01
  WS02006251WS02006249        2.40      2.41      2.50      1.82         1.54
  WS02006249WS02006248        2.40      2.40      2.50      4.29         0.01
  WS02006248WS02006247        2.48      2.48      2.87      0.01         0.01
  WS02006247WS02006245        2.84      2.94      2.84      4.47         2.80
  WS02006245WS02006243        2.90      2.91      3.01      0.54         0.46
  WS02006243WS02006242        3.08      3.08      3.71      0.01         0.01
  WS02006242WS02006240        3.54      3.54      3.85      2.58         0.01
  WS02006240WS02006239        3.56      3.59      3.67      1.47         1.09
  WS02006239WS02006238        3.83      3.88      3.90      1.52         1.28
  WS02006238WS02006235        3.86      3.86      4.00      0.01         0.02
  WS02006235WS02006234        3.56      3.56      3.82      5.71         0.01
  WS02006234WS02006232        3.74      3.74      4.26      1.23         1.27
  WS02006232WS02006231        2.62      2.62      4.26      1.59         0.01
  WS02006231WS02006230        1.92      1.92      2.72      5.81         0.01
  WS02006230WS02006229        4.81      4.91      4.81      5.99         4.81
  WS02006228WS02006109        4.54      4.71      4.54      5.38         4.54
  WS02006116WS02004401        0.33      0.33      0.34      0.28         0.28
  WS02006115WS02006116        0.23      0.23      0.23      0.18         0.18
[...]
  YS02001765YS02001762        5.84      5.84      5.87      0.01         0.01
  YS02001770YS02001767        5.81      5.81      5.81      0.19         0.82
  YS02001774YS02001770        5.80      5.80      5.86      0.01         0.01
  YS02001779YS02001774        5.67      5.67      5.86      0.01         0.01
  YS02001649YS02001757        5.88      5.88      5.98      0.01         0.01
  YS02001767YS02001765        5.81      5.81      5.84      0.01         0.01
  YS02006561YS02001783        0.73      0.73      1.23      0.01         0.01
  YS02001783YS02001784        1.21      1.23      1.21      1.30         1.10
  YS02001784YS02001785        1.16      1.21      1.16      2.39         1.16
  YS02001788YS02001790        1.11      1.11      1.75      0.01         0.01
  YS02001790YS02001791        1.74      1.75      1.83      0.92         0.90
  YS02001791YS02001793        1.83      1.83      2.16      0.01         0.01
  YS02001910YS02001907        1.11      1.11      1.81      0.01         0.01
  YS02001786YS02001788        1.11      1.16      1.11      1.96         1.11
  YS02001915YS02001910        0.92      0.92      1.11      0.01         0.01
  YS02001918YS02001915        0.70      0.70      0.92      0.01         0.01
  YS02001923YS02001920        0.53      0.53      0.73      0.01         0.01
  YS02001920YS02001918        0.70      0.70      0.73      0.01         0.01
  YS02001629YS02163301        5.80      5.80      5.81      0.01         0.01
  YS02001619YS02001622        5.48      5.48      5.52      0.01         0.01
  YS02001622YS02001625        5.52      5.52      5.76      0.01         0.01
  YS02001625YS02001629        5.49      5.49      5.76      0.01         0.01
  YS02163301YS02001633        5.81      5.81      5.84      0.01         0.01
  YS02163601YS02164001        5.83      5.83      5.87      0.01         0.01
  YS02164001YS02001641        5.83      5.83      5.85      0.01         0.03
  YS02001641YS02001644        5.85      5.85      5.85      1.52         1.60
  YS02001647YS02001649        5.75      5.75      5.88      0.01         0.01
  YS02006553YS02006556        1.35      1.35      1.87      0.01         0.01
  YS02006556YS02006558        1.54      1.54      1.94      0.01         0.01
  YS02001907YS02006553        2.40      2.40      2.63      0.01         0.01
  YS02006558YS02006561        0.94      1.31      0.94      2.24         0.94
  YS02001633YS02163601        5.83      5.83      5.87      0.01         0.01
  YS02001644YS02001647        5.75      5.75      5.85      0.01         0.01
  YS02001745YS02001748        0.01      0.01      5.30      0.01         0.01
  YS02001748YS02001751        5.35      5.35      5.48      0.01         0.01
  YS02001751YS02001754        5.48      5.48      5.69      0.01         0.01
  YS02001754YS02001757        5.74      5.74      5.98      0.01         0.01
  YS02001882YS02001884        0.94      0.94      0.96      0.01         0.01
  YS02001884YS02001887        1.01      1.01      1.04      0.01         0.01
  YS02001890YS02001895        0.91      0.91      1.14      0.01         0.01
  YS02001895YS02001898        0.90      0.90      0.91      0.01         0.01
  YS02001898YS02001901        0.92      0.92      1.00      0.01         0.01
  YS02001901YS02001904        0.98      0.98      1.00      0.01         0.01
  YS02001904YS02001907        0.98      0.98      1.89      0.01         0.01
  YS02001887YS02001890        1.07      1.07      1.09      0.01         0.01
  YS02001652YS02001649        5.76      5.76      5.88      0.01         0.01
  YS02001655YS02001652        5.51      5.51      5.73      0.01         0.01
  YS02001658YS02001655        5.33      5.33      5.51      0.01         0.01
  YS02001661YS02001658        0.20      0.20      5.33      0.01         0.01
  YS02001664YS02001661        0.01      0.01      0.92      0.01         0.01
  HS02004881HS02006253        0.01      0.01      1.54      0.01         0.01
  YS02001793JiankangQianchi        2.08      2.08      3.93      0.01         0.01
  YS02001757CaochengTiaoxuchi        5.21      5.21      5.98      0.01         0.01
  
  
  ***************
  Pumping Summary
  ***************
  
  ---------------------------------------------------------------------------------------------------------
                                                  Min       Avg       Max     Total     Power    % Time Off
                        Percent   Number of      Flow      Flow      Flow    Volume     Usage    Pump Curve
  Pump                 Utilized   Start-Ups       LPS       LPS       LPS  10^6 ltr     Kw-hr    Low   High
  ---------------------------------------------------------------------------------------------------------
  CC-Pump-1               61.70           2      0.00    183.67    200.00     3.180      3.77    0.0    0.0
  CC-Pump-2               42.55           5      0.00    110.96    200.00     1.680      2.46    0.0    0.0
  JK-Pump-1               61.70           4      0.00    229.01    300.00     3.766     58.14    0.0    0.0
  JK-Pump-2               55.31           5      0.00    410.17    683.00     6.229     86.75    0.0   96.9
  XR-Pump-1              100.00           1      0.00     95.00     95.00     2.679     28.85    0.0    0.0
  XR-Pump-2              100.00           1      0.00     95.00     95.00     2.679     28.85    0.0    0.0
  XR-Pump-3               91.49           2      0.00     92.40     95.00     2.337     21.25    0.0    0.0
  XR-Pump-4               91.49           2      0.00     92.40     95.00     2.337     21.25    0.0    0.0
  
  
  ***************************
  Link Pollutant Load Summary
  ***************************
  
  ------------------------------------------------------------------------------------------
                                 COD            SS            TN            TP         NH4-N
  Link                            kg            kg            kg            kg            kg
  ------------------------------------------------------------------------------------------
  WS02003066WSF200           849.926      1563.360        22.117         1.914        11.614
  WS02006287WS02006284       268.076       498.252         9.346         0.943         5.214
  WS02006284WS02006280       268.563       499.039         9.393         0.949         5.243
  WS02006280WS02006229       268.529       498.975         9.391         0.948         5.242
  WS02006229WS02006228       856.643      1575.263        21.814         1.858        11.387
  WS02006256WS02006235       196.432       360.589         4.295         0.332         2.167
  WS02006253WS02006251        51.285        98.766         1.183         0.091         0.594
  WS02006252WS02006251       400.739       726.895         8.196         0.575         3.995
  WS02006251WS02006249       445.058       813.108         9.248         0.658         4.527
  WS02006249WS02006248       400.134       730.605         8.323         0.592         4.075
  WS02006248WS02006247       400.049       730.494         8.323         0.592         4.076
  WS02006247WS02006245       399.542       729.589         8.311         0.591         4.070
  WS02006245WS02006243       398.670       728.104         8.289         0.589         4.058
  WS02006243WS02006242       398.602       728.013         8.289         0.589         4.058
  WS02006242WS02006240       397.959       726.885         8.276         0.588         4.052
  WS02006240WS02006239       397.775       726.513         8.279         0.589         4.055
  WS02006239WS02006238       398.565       727.773         8.321         0.594         4.080
  WS02006238WS02006235       399.132       728.630         8.347         0.597         4.095
  WS02006235WS02006234       592.463      1083.933        12.531         0.918         6.201
  WS02006234WS02006232       591.859      1082.859        12.523         0.918         6.197
  WS02006232WS02006231       591.135      1081.593        12.505         0.917         6.189
  WS02006231WS02006230       590.480      1080.427        12.493         0.916         6.182
  WS02006230WS02006229       589.248      1078.281        12.460         0.913         6.165
  WS02006228WS02006109       855.601      1573.465        21.783         1.855        11.370
  WS02006116WS02004401       865.791      1591.376        22.525         1.948        11.826
  WS02006115WS02006116       867.255      1593.933        22.568         1.951        11.849
  WS02006113WS02006111       861.178      1582.031        22.501         1.948        11.826
  WS02006112WS02006115       868.683      1596.429        22.619         1.956        11.878
  WS02006111WS02006112       860.593      1580.985        22.486         1.947        11.818
  WS02006110WS02006113       861.810      1583.116        22.524         1.950        11.839
  WS02006109WS02006110       863.101      1585.345        22.574         1.955        11.868
  WS02004411WS02004412       854.382      1571.201        22.264         1.928        11.695
  WS02004401WS02004402       864.259      1588.700        22.473         1.942        11.797
  WS02004413WS02003067       850.855      1565.013        22.139         1.916        11.625
  WS02004412WS02004413       852.761      1568.339        22.219         1.924        11.671
  WS02004410WS02004411       855.662      1573.458        22.299         1.931        11.713
  WS02004409WS02004410       856.914      1575.662        22.336         1.934        11.733
  WS02004407WS02004409       857.937      1577.462        22.361         1.936        11.746
  WS02004406WS02004407       858.224      1577.961        22.363         1.936        11.746
  WS02004405WS02004406       860.306      1581.565        22.450         1.945        11.797
  WS02004404WS02004405       861.731      1584.114        22.463         1.945        11.800
  WS02004403WS02004404       861.519      1583.911        22.384         1.934        11.748
  WS02004402WS02004403       862.829      1586.203        22.429         1.938        11.773
  WS02004139WS02001211      1411.076      2324.585       117.374        14.374        72.484
  WS02004138WS02004139      1417.446      2335.110       117.886        14.436        72.800
  WS02003067WS02003066       850.168      1563.792        22.125         1.915        11.618
  WS02001213WS02003059      1444.046      2376.620       120.751        14.799        74.605
  WS02001212WS02001213      1453.196      2391.647       121.516        14.893        75.078
  WS02001211WS02001212      1455.289      2395.047       121.701        14.916        75.192
  WS02003072WS02003073      2392.826      4097.021       152.754        17.955        92.414
  WS02003069WS02003072      2398.167      4105.776       153.190        18.009        92.683
  WS02003060WS02003069      2401.240      4111.017       153.370        18.029        92.791
  WS02003059WS02003060      1441.103      2371.700       120.531        14.773        74.470
  HS02004901HS02004770        10.271        19.479         0.196         0.015         0.091
  HS02004876HS02004881        37.320        72.585         0.843         0.062         0.416
  HS02004870HS02004876        28.162        54.632         0.678         0.051         0.338
  HS02004842HS02004848         5.467        10.277         0.115         0.008         0.053
  HS02004837HS02004842        10.072        17.581         0.584         0.067         0.347
  HS02004830HS02004837        65.639       112.705         4.556         0.546         2.785
  HS02004824HS02004830        66.391       113.909         4.628         0.555         2.829
  HS02004817HS02004824        88.209       156.981         5.083         0.584         3.051
  HS02004770HS02004777        39.298        75.470         0.819         0.055         0.377
  HS02004799HS02004480       131.420       245.393         3.680         0.335         1.933
  HS02004792HS02004799       119.094       220.680         3.497         0.327         1.853
  HS02004788HS02004792        68.400       126.867         2.388         0.235         1.309
  HS02004785HS02004788        40.737        77.768         0.969         0.074         0.471
  HS02004777HS02004785        40.063        76.673         0.909         0.067         0.434
  HS02004480HS02004478       165.963       312.621         4.243         0.374         2.195
  HS02004479HS02004480        38.145        72.975         0.884         0.079         0.462
  HS02004862HS02004870        21.017        40.120         0.536         0.043         0.270
  HS02004848HS02004852         8.058        15.280         0.167         0.011         0.077
  HS02004856HS02004862        14.073        27.342         0.284         0.019         0.133
  HS02004852HS02004856         8.065        15.292         0.167         0.011         0.077
  HS02004802HS02004478       102.889       186.896         5.162         0.575         3.055
  HS02004478WS02006287       268.271       498.579         9.363         0.945         5.224
  HS02004817HS02004807        86.890       154.866         4.956         0.568         2.972
  HS02004807HS02004802       103.116       187.250         5.194         0.580         3.075
  YS02001759YS02001757       353.373       643.930         7.077         0.490         3.458
  YS02001762YS02001759       140.788       255.805         3.074         0.217         1.529
  YS02001765YS02001762       140.595       255.731         3.092         0.219         1.540
  YS02001770YS02001767       138.574       252.682         2.857         0.186         1.389
  YS02001774YS02001770       160.743       309.217         3.126         0.204         1.510
  YS02001779YS02001774       159.850       307.395         3.213         0.218         1.571
  YS02001649YS02001757       319.853       565.057         6.487         0.451         3.114
  YS02001767YS02001765       140.641       255.913         3.111         0.220         1.551
  YS02006561YS02001783       939.994      1724.302        19.895         1.492         9.926
  YS02001783YS02001784       939.862      1724.091        19.891         1.492         9.924
  YS02001784YS02001785       947.197      1735.841        20.604         1.581        10.370
  YS02001788YS02001790       947.774      1736.771        20.676         1.590        10.416
  YS02001790YS02001791       948.760      1738.355        20.775         1.603        10.478
  YS02001791YS02001793       948.724      1738.303        20.771         1.602        10.476
  YS02001910YS02001907       329.993       598.992         8.217         0.640         4.244
  YS02001786YS02001788       947.376      1736.126        20.631         1.585        10.388
  YS02001915YS02001910       330.078       599.126         8.173         0.634         4.214
  YS02001918YS02001915       157.264       272.952         4.590         0.428         2.500
  YS02001923YS02001920       136.672       239.823         2.623         0.182         1.272
  YS02001926YS02001923       136.394       239.401         2.586         0.178         1.248
  YS02001929YS02001926       136.171       239.030         2.555         0.174         1.228
  YS02001920YS02001918       156.573       271.649         4.546         0.423         2.474
  YS02001629YS02163301       103.539       183.459         2.171         0.140         1.012
  YS02001619YS02001622       146.396       262.934         3.031         0.197         1.414
  YS02001622YS02001625       145.236       261.099         3.003         0.195         1.401
  YS02001625YS02001629       104.627       185.259         2.195         0.142         1.023
  YS02163301YS02001633       103.266       182.998         2.164         0.140         1.010
  YS02163601YS02164001       362.064       646.242         7.116         0.502         3.404
  YS02164001YS02001641       361.590       645.445         7.097         0.501         3.393
  YS02001641YS02001644       361.844       645.798         7.096         0.500         3.392
  YS02001647YS02001649       368.694       660.458         7.366         0.513         3.520
  YS02006553YS02006556       661.493      1207.916        14.297         1.099         7.208
  YS02006556YS02006558       661.485      1207.887        14.266         1.094         7.187
  YSB6556YSB1171              21.952        42.197         0.451         0.038         0.229
  YS02001907YS02006553       661.605      1208.146        14.311         1.100         7.217
  YS02006558YS02006561       939.932      1724.180        19.893         1.492         9.925
  YS02001633YS02163601       362.764       647.328         7.096         0.498         3.387
  YS02001644YS02001647       374.086       670.149         7.454         0.519         3.560
  YS02001745YS02001748       206.131       380.150         4.348         0.282         2.123
  YS02001748YS02001751       206.206       379.965         4.501         0.304         2.225
  YS02001751YS02001754       205.257       378.401         4.487         0.304         2.219
  YS02001754YS02001757       206.035       379.577         4.652         0.326         2.326
  YS02001882YS02001884         3.598         6.253         0.071         0.006         0.035
  YS02001884YS02001887         6.758        11.941         0.132         0.010         0.066
  YS02001890YS02001895       389.333       720.409         7.187         0.539         3.507
  YS02001895YS02001898       389.143       720.142         7.180         0.539         3.503
  YS02001898YS02001901       388.962       719.841         7.176         0.538         3.501
  YS02001901YS02001904       388.795       719.599         7.182         0.539         3.506
  YS02001904YS02001907       389.025       719.961         7.236         0.547         3.541
  YS02001887YS02001890       390.144       721.626         7.241         0.546         3.540
  YS02001652YS02001649       153.150       279.801         3.129         0.225         1.466
  YS02001655YS02001652       153.991       281.129         3.151         0.226         1.477
  YS02001658YS02001655       153.847       280.885         3.073         0.215         1.424
  YS02001661YS02001658       157.042       286.502         3.139         0.220         1.455
  YS02001664YS02001661       175.347       317.659         3.535         0.247         1.637
  YSB1154YSB6556              21.533        41.530         0.402         0.032         0.198
  YSB1174YSB1171              14.654        28.290         0.298         0.024         0.149
  YSB1171HS02004479           38.103        72.908         0.887         0.079         0.465
  HS02004881HS02006253        42.447        82.947         0.927         0.067         0.455
  YS02001793JiankangQianchi       949.472      1739.536        20.807         1.606        10.496
  YS02001757CaochengTiaoxuchi       631.536      1133.511        13.092         0.916         6.386
  WSF200WS02003060           849.537      1562.643        22.119         1.915        11.617
  1                         2397.964      4104.524       153.497        18.052        92.889
  CC-Pump-1                  262.207       475.685         5.361         0.376         2.613
  CC-Pump-2                  138.520       251.191         2.834         0.199         1.382
  JK-Pump-1                  260.203       481.867         5.477         0.414         2.736
  JK-Pump-2                  496.007       923.535        10.427         0.790         5.210
  XR-Pump-1                  392.135       644.271        33.072         4.058        20.448
  XR-Pump-2                  392.135       644.271        33.072         4.058        20.448
  XR-Pump-3                  318.477       526.379        26.031         3.179        16.051
  XR-Pump-4                  318.477       526.379        26.031         3.179        16.051
  

  Analysis begun on:  Fri Jul 16 09:53:23 2021
  Analysis ended on:  Fri Jul 16 09:53:26 2021
  Total elapsed time: 00:00:03