
  EPA STORM WATER MANAGEMENT MODEL - VERSION 5.1 (Build 5.3.0.dev0)
  --------------------------------------------------------------

  WARNING 04: minimum elevation drop used for Conduit WS02004404WS02004405
  WARNING 03: negative offset ignored for Link YS02001904YS02001907
  
  *********************************************************
  NOTE: The summary statistics displayed in this report are
  based on results found at every computational time step,  
  not just on results from each reporting time step.
  *********************************************************
  
  ****************
  Analysis Options
  ****************
  Flow Units ............... LPS
  Process Models:
    Rainfall/Runoff ........ YES
    RDII ................... NO
    Snowmelt ............... NO
    Groundwater ............ NO
    Flow Routing ........... YES
    Ponding Allowed ........ NO
    Water Quality .......... YES
  Infiltration Method ...... HORTON
  Flow Routing Method ...... DYNWAVE
  Surcharge Method ......... EXTRAN
  Starting Date ............ 08/28/2015 08:00:00
  Ending Date .............. 08/28/2015 15:50:00
  Antecedent Dry Days ...... 8.0
  Report Time Step ......... 00:01:00
  Wet Time Step ............ 00:01:00
  Dry Time Step ............ 00:01:00
  Routing Time Step ........ 5.00 sec
  Variable Time Step ....... YES
  Maximum Trials ........... 8
  Number of Threads ........ 4
  Head Tolerance ........... 0.001500 m
  
  
  **************************        Volume         Depth
  Runoff Quantity Continuity     hectare-m            mm
  **************************     ---------       -------
  Total Precipitation ......         5.556        12.164
  Evaporation Loss .........         0.000         0.000
  Infiltration Loss ........         1.002         2.194
  Surface Runoff ...........         3.688         8.075
  Final Storage ............         0.866         1.897
  Continuity Error (%) .....        -0.019
  
  
  **************************           COD            SS            TN            TP         NH4-N
  Runoff Quality Continuity             kg            kg            kg            kg            kg
  **************************    ----------    ----------    ----------    ----------    ----------
  Initial Buildup ..........     41378.656     70582.865      1804.177       168.684      1032.807
  Surface Buildup ..........        19.275        34.271         2.335         0.213         1.362
  Wet Deposition ...........         0.000         0.000         0.000         0.000         0.000
  Sweeping Removal .........         0.000         0.000         0.000         0.000         0.000
  Infiltration Loss ........        84.023       157.502         1.599         0.111         0.761
  BMP Removal ..............         0.000         0.000         0.000         0.000         0.000
  Surface Runoff ...........      3122.074      5752.154        60.620         4.098        28.771
  Remaining Buildup ........     38190.779     64705.500      1744.271       164.686      1004.628
  Continuity Error (%) .....         0.003         0.003         0.001         0.001         0.001
  
  
  **************************        Volume        Volume
  Flow Routing Continuity        hectare-m      10^6 ltr
  **************************     ---------     ---------
  Dry Weather Inflow .......         0.616         6.165
  Wet Weather Inflow .......         3.687        36.870
  Groundwater Inflow .......         0.000         0.000
  RDII Inflow ..............         0.000         0.000
  External Inflow ..........         0.102         1.024
  External Outflow .........         2.113        21.129
  Flooding Loss ............         1.923        19.227
  Evaporation Loss .........         0.000         0.000
  Exfiltration Loss ........         0.000         0.000
  Initial Stored Volume ....         0.076         0.761
  Final Stored Volume ......         0.597         5.975
  Continuity Error (%) .....        -3.375
  
  
  **************************           COD            SS            TN            TP         NH4-N
  Quality Routing Continuity            kg            kg            kg            kg            kg
  **************************    ----------    ----------    ----------    ----------    ----------
  Dry Weather Inflow .......      1541.201      2465.922       147.955        18.494        92.472
  Wet Weather Inflow .......      3121.237      5750.709        60.602         4.097        28.763
  Groundwater Inflow .......         0.000         0.000         0.000         0.000         0.000
  RDII Inflow ..............         0.000         0.000         0.000         0.000         0.000
  External Inflow ..........       183.418       293.469        17.608         2.201        11.005
  External Outflow .........      2413.366      4129.126       153.269        17.994        92.673
  Flooding Loss ............      1767.500      3250.993        46.350         4.078        24.474
  Exfiltration Loss ........         0.000         0.000         0.000         0.000         0.000
  Mass Reacted .............         0.000         0.000         0.000         0.000         0.000
  Initial Stored Mass ......         0.000         0.000         0.000         0.000         0.000
  Final Stored Mass ........       475.771       801.988        22.178         2.388        12.900
  Continuity Error (%) .....         3.905         3.854         1.932         1.340         1.658
  
  
  *************************
  Highest Continuity Errors
  *************************
  Node JK-storage (-15.14%)
  Node HS02004842 (14.53%)
  Node YS02001884 (10.57%)
  Node YSB1171 (2.74%)
  Node HS02004817 (2.73%)
  
  
  ***************************
  Time-Step Critical Elements
  ***************************
  Link WS02006252WS02006251 (54.32%)
  Link WS02006280WS02006229 (9.72%)
  Link YS02001793JiankangQianchi (8.17%)
  Link WS02006235WS02006234 (7.05%)
  Link WS02006238WS02006235 (5.41%)
  
  
  ********************************
  Highest Flow Instability Indexes
  ********************************
  Link YS02163601YS02164001 (40)
  Link YS02163301YS02001633 (39)
  Link WS02006113WS02006111 (39)
  Link YS02001629YS02163301 (38)
  Link YS02001619YS02001622 (38)
  
  
  *************************
  Routing Time Step Summary
  *************************
  Minimum Time Step           :     0.50 sec
  Average Time Step           :     1.22 sec
  Maximum Time Step           :     5.00 sec
  Percent in Steady State     :    -0.00
  Average Iterations per Step :     4.38
  Percent Not Converging      :    21.69
  
  
  ***************************
  Subcatchment Runoff Summary
  ***************************
  
  ------------------------------------------------------------------------------------------------------------------------------
                            Total      Total      Total      Total     Imperv       Perv      Total       Total     Peak  Runoff
                           Precip      Runon       Evap      Infil     Runoff     Runoff     Runoff      Runoff   Runoff   Coeff
  Subcatchment                 mm         mm         mm         mm         mm         mm         mm    10^6 ltr      LPS
  ------------------------------------------------------------------------------------------------------------------------------
  sub0                      12.16       0.00       0.00       0.65      11.27       0.20      11.47        0.01     1.99   0.943
  sub1                      12.16       0.00       0.00       1.12      10.73       0.22      10.95        0.07    14.96   0.900
  sub2                      12.16       0.00       0.00       4.23       7.58       0.27       7.85        0.07    15.08   0.646
  sub3                      12.16       0.00       0.00       4.29       7.54       0.21       7.75        0.17    34.61   0.637
  sub4                      12.16       0.00       0.00       1.19      10.57       0.14      10.71        0.22    42.34   0.881
  sub5                      12.16       0.00       0.00       0.69      11.21       0.16      11.38        0.13    26.18   0.935
  sub7                      12.16       0.00       0.00       0.88      11.01       0.22      11.22        0.04     7.95   0.923
  sub8                      12.16       0.00       0.00       0.89      11.00       0.21      11.20        0.07    14.89   0.921
  sub9                      12.16       0.00       0.00       0.89      10.99       0.21      11.20        0.05    11.18   0.921
  sub10                     12.16       0.00       0.00       0.79      11.10       0.18      11.28        0.12    25.49   0.928
  sub11                     12.16       0.00       0.00       0.78      11.12       0.19      11.31        0.13    27.35   0.930
  sub12                     12.16       0.00       0.00       1.27      10.53       0.31      10.85        0.09    20.52   0.892
  sub14                     12.16       0.00       0.00       0.89      10.99       0.20      11.20        0.11    22.08   0.920
  sub15                     12.16       0.00       0.00       3.28       8.45       0.37       8.82        0.15    32.49   0.725
  sub16                     12.16       0.00       0.00       3.51       8.11       0.50       8.61        0.09    20.36   0.708
  sub17                     12.16       0.00       0.00       3.41       8.23       0.48       8.71        0.07    16.72   0.716
  sub22                     12.16       0.00       0.00       4.80       6.89       0.43       7.32        0.46   102.62   0.602
  sub23                     12.16       0.00       0.00       4.05       7.62       0.45       8.07        0.38    85.35   0.663
  sub60                     12.16       0.00       0.00       1.42       8.82       0.04       8.86        2.69   336.84   0.729
  sub61                     12.16       0.00       0.00       2.01       8.94       0.06       9.00        2.78   399.45   0.740
  sub62                     12.16       0.00       0.00       0.92       9.73       0.05       9.78        3.01   415.79   0.804
  sub63                     12.16       0.00       0.00       3.46       7.82       0.06       7.88        2.39   361.21   0.648
  sub64                     12.16       0.00       0.00       1.78       8.47       0.04       8.51        2.59   320.97   0.699
  sub65                     12.16       0.00       0.00       1.54       8.61       0.04       8.65        2.66   326.54   0.711
  sub66                     12.16       0.00       0.00       3.49       7.26       0.04       7.30        2.24   290.53   0.600
  sub67                     12.16       0.00       0.00       0.91      10.24       0.07      10.31        3.18   494.23   0.848
  sub68                     12.16       0.00       0.00       1.64       9.40       0.06       9.46        2.91   432.52   0.778
  sub69                     12.16       0.00       0.00       1.73       9.72       0.09       9.82        2.29   383.95   0.807
  sub70                     12.16      10.02       0.00       6.98      13.09       0.56      13.65        3.12   394.93   0.615
  sub71                     12.16       0.00       0.00       0.93       9.48       0.05       9.53        2.25   296.34   0.783
  sub72                     12.16       0.00       0.00       0.83       7.62       0.02       7.64        1.56   151.13   0.628
  1                         12.16      13.29       0.00       1.37      14.64       3.94      18.57        4.36   399.24   0.730
  2                         12.16       0.00       0.00       3.02       2.89       1.65       4.55        1.82   245.52   0.374
  
  
  ****************************
  Subcatchment Washoff Summary
  ****************************
  
  ------------------------------------------------------------------------------------------
                                 COD            SS            TN            TP         NH4-N
  Subcatchment                    kg            kg            kg            kg            kg
  ------------------------------------------------------------------------------------------
  sub0                         2.176         4.147         0.037         0.003         0.018
  sub1                         9.268        18.138         0.173         0.012         0.083
  sub2                         5.563        10.570         0.119         0.008         0.054
  sub3                        13.747        25.918         0.288         0.019         0.132
  sub4                        21.530        42.606         0.429         0.026         0.205
  sub5                        21.300        41.103         0.378         0.029         0.183
  sub7                         4.748         9.424         0.090         0.006         0.043
  sub8                         7.142        14.500         0.143         0.008         0.069
  sub9                         6.100        12.212         0.118         0.007         0.057
  sub10                       17.532        34.266         0.321         0.023         0.155
  sub11                       17.086        33.770         0.320         0.022         0.154
  sub12                       14.392        27.890         0.260         0.019         0.125
  sub14                       13.021        25.823         0.247         0.016         0.119
  sub15                       16.182        30.744         0.313         0.023         0.146
  sub16                       10.318        19.555         0.197         0.015         0.092
  sub17                        9.471        17.789         0.175         0.014         0.082
  sub22                       48.821        90.813         0.932         0.070         0.434
  sub23                       29.138        56.181         0.627         0.041         0.287
  sub60                      203.703       376.194         4.083         0.248         1.956
  sub61                      251.300       461.579         4.699         0.320         2.261
  sub62                      262.762       491.326         5.157         0.324         2.474
  sub63                      185.047       334.594         3.739         0.261         1.731
  sub64                      253.867       452.095         4.687         0.339         2.235
  sub65                      260.106       465.192         4.834         0.344         2.309
  sub66                      146.558       263.078         3.037         0.197         1.417
  sub67                      388.205       718.566         6.963         0.510         3.363
  sub68                      276.714       513.393         5.318         0.356         2.539
  sub69                      247.676       464.012         4.658         0.325         2.225
  sub70                      413.256       778.342         8.287         0.572         3.877
  sub71                      173.740       327.842         3.597         0.206         1.720
  sub72                      136.329       239.316         2.558         0.174         1.230
  1                          280.724       531.718         5.751         0.398         2.660
  2                           35.485        61.812         1.030         0.062         0.437
  ------------------------------------------------------------------------------------------
  System                    3783.006      6994.507        73.566         4.996        34.873
  
  
  ******************
  Node Depth Summary
  ******************
  
  ---------------------------------------------------------------------------------
                                 Average  Maximum  Maximum  Time of Max    Reported
                                   Depth    Depth      HGL   Occurrence   Max Depth
  Node                 Type       Meters   Meters   Meters  days hr:min      Meters
  ---------------------------------------------------------------------------------
  WS02001211           JUNCTION     0.78     0.83     5.67     0  03:08        0.83
  WS02001212           JUNCTION     0.49     0.56     5.62     0  03:07        0.56
  WS02001213           JUNCTION     0.73     0.83     5.59     0  03:07        0.83
  WS02003069           JUNCTION     0.54     0.68     5.27     0  03:06        0.68
  WS02003072           JUNCTION     0.60     0.73     5.10     0  03:07        0.73
  WS02003073           JUNCTION     0.37     0.46     4.52     0  03:08        0.46
  WS02003060           JUNCTION     0.48     0.60     5.53     0  03:06        0.60
  WS02003066           JUNCTION     0.27     0.36     5.92     0  03:04        0.36
  WS02003059           JUNCTION     0.78     0.88     5.57     0  03:06        0.88
  WS02003067           JUNCTION     0.64     0.79     6.11     0  03:04        0.79
  WS02004401           JUNCTION     0.78     1.14     7.14     0  03:02        1.13
  WS02004402           JUNCTION     0.81     1.14     7.10     0  03:01        1.13
  WS02004403           JUNCTION     0.82     1.12     7.05     0  03:01        1.12
  WS02004404           JUNCTION     0.90     1.18     7.03     0  03:03        1.17
  WS02004406           JUNCTION     0.89     1.12     6.95     0  03:02        1.11
  WS02004409           JUNCTION     0.59     0.87     6.64     0  03:04        0.87
  WS02004410           JUNCTION     0.61     0.87     6.59     0  03:04        0.87
  WS02004411           JUNCTION     0.62     0.86     6.54     0  03:04        0.86
  WS02004412           JUNCTION     0.63     0.85     6.49     0  03:04        0.85
  WS02004413           JUNCTION     0.79     0.98     6.45     0  03:04        0.98
  WS02004405           JUNCTION     0.89     1.16     7.01     0  03:03        1.15
  WS02006109           JUNCTION     0.88     1.31     7.93     0  03:02        1.30
  WS02006110           JUNCTION     0.85     1.15     7.74     0  03:02        1.15
  WS02006111           JUNCTION     0.26     0.65     7.36     0  03:03        0.65
  WS02006112           JUNCTION     0.96     1.42     7.30     0  03:02        1.41
  WS02006113           JUNCTION     0.41     0.65     7.54     0  03:02        0.65
  WS02006115           JUNCTION     0.68     1.09     7.23     0  03:02        1.09
  WS02006116           JUNCTION     0.76     1.14     7.18     0  03:02        1.14
  WS02006230           JUNCTION     0.92     1.52     8.27     0  03:02        1.51
  WS02006231           JUNCTION     0.64     1.22     8.34     0  03:02        1.21
  WS02006232           JUNCTION     0.79     1.36     8.40     0  03:02        1.36
  WS02006234           JUNCTION     0.75     1.32     8.48     0  03:02        1.31
  WS02006235           JUNCTION     0.80     1.37     8.53     0  03:01        1.36
  WS02006238           JUNCTION     0.82     1.40     8.54     0  03:02        1.38
  WS02006240           JUNCTION     0.74     1.28     8.58     0  03:02        1.28
  WS02006242           JUNCTION     0.79     1.34     8.60     0  03:01        1.33
  WS02006243           JUNCTION     0.68     1.21     8.63     0  03:01        1.20
  WS02006245           JUNCTION     0.66     1.17     8.65     0  03:02        1.16
  WS02006247           JUNCTION     0.66     1.17     8.67     0  02:59        1.16
  WS02006248           JUNCTION     0.61     1.10     8.68     0  03:00        1.09
  WS02006249           JUNCTION     0.62     1.09     8.69     0  02:56        1.09
  WS02006239           JUNCTION     0.79     1.35     8.55     0  03:01        1.34
  WS02006251           JUNCTION     0.60     1.38     9.05     0  02:56        1.19
  WS02006252           JUNCTION     0.36     0.88     9.13     0  04:11        0.72
  WS02006253           JUNCTION     0.63     1.61     9.26     0  02:55        1.23
  WS02006256           JUNCTION     1.89     2.35     9.28     0  00:00        2.35
  WS02004138           JUNCTION     0.19     0.20     7.45     0  00:00        0.19
  WS02004139           JUNCTION     0.72     0.77     5.68     0  03:08        0.77
  WS02004407           JUNCTION     0.26     0.37     6.68     0  03:03        0.37
  WS02006228           JUNCTION     0.90     1.44     8.09     0  03:02        1.43
  WS02006229           JUNCTION     0.89     1.49     8.18     0  03:02        1.48
  WS02006280           JUNCTION     0.07     0.20     8.47     0  03:02        0.20
  WS02006284           JUNCTION     0.37     0.56     8.96     0  03:02        0.56
  WS02006287           JUNCTION     0.10     0.30     9.25     0  03:01        0.30
  WSF200               JUNCTION     0.26     0.40     5.64     0  03:04        0.40
  HS02004901           JUNCTION     0.13     0.29    10.12     0  03:01        0.29
  HS02004881           JUNCTION     0.01     0.04     9.07     0  02:56        0.04
  HS02004876           JUNCTION     0.05     0.12     9.15     0  03:01        0.12
  HS02004870           JUNCTION     0.02     0.07     9.35     0  03:01        0.07
  HS02004862           JUNCTION     0.02     0.08     9.46     0  03:01        0.08
  HS02004856           JUNCTION     0.08     0.13     9.55     0  03:01        0.13
  HS02004852           JUNCTION     0.01     0.05     9.56     0  03:01        0.05
  HS02004848           JUNCTION     0.01     0.05     9.65     0  03:01        0.05
  HS02004842           JUNCTION     0.33     0.38     9.65     0  03:01        0.38
  HS02004837           JUNCTION     0.03     0.07     9.65     0  03:01        0.07
  HS02004830           JUNCTION     0.04     0.08     9.55     0  03:01        0.08
  HS02004824           JUNCTION     0.02     0.06     9.47     0  03:01        0.06
  HS02004817           JUNCTION     0.44     0.61     9.45     0  03:01        0.61
  HS02004807           JUNCTION     0.13     0.28     9.45     0  03:01        0.28
  HS02004802           JUNCTION     0.17     0.31     9.44     0  03:01        0.31
  HS02004799           JUNCTION     0.12     0.35     9.56     0  03:01        0.35
  HS02004792           JUNCTION     0.04     0.15     9.67     0  03:01        0.15
  HS02004788           JUNCTION     0.03     0.11    10.01     0  03:01        0.11
  HS02004785           JUNCTION     0.05     0.18    10.09     0  03:01        0.18
  HS02004777           JUNCTION     0.15     0.31    10.11     0  03:01        0.31
  HS02004770           JUNCTION     0.12     0.29    10.12     0  03:01        0.29
  HS02004480           JUNCTION     0.09     0.28     9.52     0  03:01        0.28
  HS02004479           JUNCTION     0.12     0.32     9.52     0  03:01        0.32
  HS02004478           JUNCTION     0.06     0.20     9.42     0  03:01        0.20
  YS02001745           JUNCTION     0.71     0.91     8.43     0  02:59        0.91
  YS02001748           JUNCTION     1.10     1.45     8.52     0  02:28        1.35
  YS02001751           JUNCTION     1.29     1.56     8.44     0  03:12        1.55
  YS02001754           JUNCTION     1.54     1.83     8.44     0  03:17        1.82
  YS02001762           JUNCTION     1.74     2.04     8.44     0  02:55        2.03
  YS02001765           JUNCTION     1.69     1.98     8.43     0  02:54        1.98
  YS02001767           JUNCTION     1.66     1.94     8.43     0  02:55        1.93
  YS02001770           JUNCTION     1.65     1.94     8.43     0  02:18        1.92
  YS02001774           JUNCTION     1.72     2.01     8.43     0  02:18        1.97
  YS02001779           JUNCTION     1.46     1.68     8.37     0  02:18        1.68
  YS02001882           JUNCTION     0.56     1.62     8.33     0  03:00        1.61
  YS02001884           JUNCTION     0.65     1.72     8.34     0  02:59        1.71
  YS02001759           JUNCTION     1.77     2.08     8.44     0  03:19        2.07
  YS02001887           JUNCTION     0.73     1.80     8.33     0  02:59        1.79
  YS02001890           JUNCTION     0.76     1.81     8.32     0  02:53        1.81
  YS02001898           JUNCTION     0.53     1.56     8.29     0  02:59        1.55
  YS02001901           JUNCTION     0.65     1.67     8.28     0  02:58        1.67
  YS02001904           JUNCTION     0.63     1.64     8.27     0  02:59        1.63
  YS02001907           JUNCTION     0.96     1.96     8.25     0  02:47        1.96
  YS02001910           JUNCTION     0.75     1.77     8.28     0  02:48        1.77
  YS02001915           JUNCTION     0.54     1.57     8.29     0  02:48        1.56
  YS02001918           JUNCTION     0.29     1.24     8.30     0  02:48        1.23
  YS02001619           JUNCTION     1.25     1.51     8.44     0  02:29        1.47
  YS02001629           JUNCTION     1.60     1.85     8.40     0  02:29        1.84
  YS02001641           JUNCTION     1.70     1.93     8.37     0  02:56        1.93
  YS02001644           JUNCTION     1.70     1.92     8.35     0  02:35        1.92
  YS02001652           JUNCTION     1.55     2.16     8.76     0  02:46        2.00
  YS02001655           JUNCTION     1.32     2.20     9.05     0  02:19        1.89
  YS02001920           JUNCTION     0.39     1.31     8.31     0  02:48        1.30
  YS02001923           JUNCTION     0.23     1.06     8.32     0  02:48        1.05
  YS02001926           JUNCTION     0.28     0.88     8.32     0  02:47        0.88
  YS02001929           JUNCTION     0.16     0.64     8.33     0  02:48        0.64
  YS02001658           JUNCTION     1.05     2.24     9.38     0  02:46        1.70
  YS02001661           JUNCTION     0.81     2.46     9.86     0  02:46        1.53
  YS02001664           JUNCTION     0.35     0.57     8.49     0  03:57        0.56
  YS02001622           JUNCTION     1.27     1.52     8.43     0  02:29        1.50
  YS02001633           JUNCTION     1.69     1.94     8.40     0  02:57        1.94
  YS02001649           JUNCTION     1.75     2.05     8.44     0  02:41        2.05
  YS02001757           JUNCTION     1.87     2.18     8.44     0  03:15        2.17
  YS02001895           JUNCTION     0.52     1.56     8.31     0  02:59        1.55
  YS02001625           JUNCTION     1.56     1.78     8.38     0  02:29        1.78
  YS02163301           JUNCTION     1.63     1.88     8.40     0  03:00        1.87
  YS02163601           JUNCTION     1.75     1.99     8.39     0  02:48        1.98
  YS02164001           JUNCTION     1.68     1.92     8.38     0  02:46        1.91
  YS02001647           JUNCTION     1.54     1.81     8.42     0  03:58        1.79
  YSB1154              JUNCTION     0.26     0.47     9.52     0  03:01        0.47
  YSB6556              JUNCTION     0.16     0.35     9.52     0  03:01        0.35
  YSB1174              JUNCTION     0.21     0.41     9.52     0  03:01        0.41
  YSB1171              JUNCTION     0.41     0.62     9.52     0  03:01        0.62
  YS02006553           JUNCTION     0.96     1.97     8.25     0  02:55        1.96
  YS02006561           JUNCTION     0.31     1.06     7.72     0  03:01        1.05
  YS02006556           JUNCTION     0.92     1.92     8.23     0  03:00        1.92
  YS02006558           JUNCTION     0.96     1.96     8.23     0  02:59        1.95
  YS02001783           JUNCTION     0.54     1.59     7.73     0  02:26        1.44
  YS02001784           JUNCTION     0.55     1.49     7.55     0  02:26        1.38
  YS02001786           JUNCTION     0.49     1.38     7.41     0  02:26        1.22
  YS02001788           JUNCTION     0.42     1.28     7.26     0  02:26        1.08
  YS02001790           JUNCTION     0.54     1.96     7.60     0  04:43        1.23
  YS02001791           JUNCTION     0.51     1.64     7.11     0  04:43        1.24
  YS02001793           JUNCTION     0.71     1.95     6.78     0  04:43        1.80
  WSC                  OUTFALL      0.37     0.46     1.13     0  03:08        0.46
  JK-storage           STORAGE      2.79     5.80     6.60     0  02:26        5.80
  CC-storage           STORAGE      1.13     1.41     8.41     0  03:13        1.41
  XR-storage           STORAGE      6.55     7.72     5.72     0  02:55        7.72
  
  
  *******************
  Node Inflow Summary
  *******************
  
  -------------------------------------------------------------------------------------------------
                                  Maximum  Maximum                  Lateral       Total        Flow
                                  Lateral    Total  Time of Max      Inflow      Inflow     Balance
                                   Inflow   Inflow   Occurrence      Volume      Volume       Error
  Node                 Type           LPS      LPS  days hr:min    10^6 ltr    10^6 ltr     Percent
  -------------------------------------------------------------------------------------------------
  WS02001211           JUNCTION      7.35   391.19     0  03:15       0.207        10.1       0.404
  WS02001212           JUNCTION      0.00   394.82     0  03:15           0          10       0.247
  WS02001213           JUNCTION      0.00   398.36     0  03:15           0          10       0.289
  WS02003069           JUNCTION      0.32  1227.18     0  03:06     0.00902        21.2       0.174
  WS02003072           JUNCTION      0.00  1227.06     0  03:07           0        21.2       0.206
  WS02003073           JUNCTION      1.82  1228.95     0  03:07      0.0514        21.2       0.237
  WS02003060           JUNCTION     16.53  1226.82     0  03:06       0.466        21.2       0.163
  WS02003066           JUNCTION      0.00   830.00     0  03:05           0        10.8       0.046
  WS02003059           JUNCTION      0.00   402.63     0  03:15           0        9.99       0.408
  WS02003067           JUNCTION      0.00   829.88     0  03:04           0        10.8       0.094
  WS02004401           JUNCTION      0.00   831.33     0  03:03           0        11.1       0.215
  WS02004402           JUNCTION      0.00   831.70     0  03:03           0        11.1       0.200
  WS02004403           JUNCTION      0.00   832.15     0  03:03           0        11.1       0.181
  WS02004404           JUNCTION      0.16   831.63     0  03:03     0.00457          11       0.133
  WS02004406           JUNCTION      0.00   831.08     0  03:03           0          11       0.326
  WS02004409           JUNCTION      0.00   830.70     0  03:03           0          11       0.173
  WS02004410           JUNCTION      0.00   830.24     0  03:03           0        10.9       0.193
  WS02004411           JUNCTION      0.00   830.01     0  03:04           0        10.9       0.195
  WS02004412           JUNCTION      0.00   829.88     0  03:04           0        10.9       0.207
  WS02004413           JUNCTION      0.00   829.86     0  03:04           0        10.9       0.302
  WS02004405           JUNCTION      0.04   832.23     0  03:02     0.00107          11       0.199
  WS02006109           JUNCTION      1.23   818.39     0  03:02      0.0347        11.2       0.198
  WS02006110           JUNCTION      0.00   818.19     0  03:02           0        11.1       0.188
  WS02006111           JUNCTION      0.00   817.57     0  03:02           0        11.1       0.046
  WS02006112           JUNCTION     16.72   830.87     0  03:03      0.0747        11.2       0.294
  WS02006113           JUNCTION      0.00   818.24     0  03:02           0        11.1       0.108
  WS02006115           JUNCTION      0.00   830.96     0  03:03           0        11.1       0.215
  WS02006116           JUNCTION      0.00   831.22     0  03:03           0        11.1       0.183
  WS02006230           JUNCTION     10.28   532.01     0  05:31        0.29        9.01       0.198
  WS02006231           JUNCTION      0.00   521.71     0  07:09           0        8.73       0.125
  WS02006232           JUNCTION      0.00   521.77     0  05:33           0        8.74       0.210
  WS02006234           JUNCTION      0.00   522.32     0  05:31           0        8.75       0.122
  WS02006235           JUNCTION      0.00   523.29     0  05:11           0        8.83       0.132
  WS02006238           JUNCTION      0.00   417.79     0  04:30           0        5.33       0.172
  WS02006240           JUNCTION      0.00   416.61     0  04:30           0        5.29       0.315
  WS02006242           JUNCTION      0.00   416.19     0  04:30           0        5.29       0.350
  WS02006243           JUNCTION      0.00   416.24     0  04:30           0        5.29       0.316
  WS02006245           JUNCTION      0.00   415.48     0  04:30           0         5.3       0.261
  WS02006247           JUNCTION      0.00   415.69     0  04:30           0         5.3       0.213
  WS02006248           JUNCTION      0.00   416.15     0  04:30           0        5.31       0.186
  WS02006249           JUNCTION      0.00   486.11     0  03:00           0        5.67       0.265
  WS02006239           JUNCTION      0.00   417.54     0  04:30           0        5.31       0.269
  WS02006251           JUNCTION      0.08   484.52     0  03:00     0.00217        5.74       0.282
  WS02006252           JUNCTION      0.00   400.00     0  04:10           0        5.28       0.008
  WS02006253           JUNCTION      1.99   153.09     0  04:10     0.00928        0.47       2.496
  WS02006256           JUNCTION      0.00   983.00     0  02:00           0        10.5      -0.012
  WS02004138           JUNCTION      0.00   380.00     0  00:00           0        9.92       0.062
  WS02004139           JUNCTION      0.32   395.85     0  00:00     0.00905        9.92       0.462
  WS02004407           JUNCTION      0.00   830.92     0  03:03           0          11       0.078
  WS02006228           JUNCTION      0.00   816.91     0  03:02           0        11.1       0.155
  WS02006229           JUNCTION      0.00   817.26     0  03:02           0        11.2       0.132
  WS02006280           JUNCTION      0.00   413.63     0  03:02           0        2.17       0.006
  WS02006284           JUNCTION      0.10   413.57     0  03:02      0.0027        2.17       0.042
  WS02006287           JUNCTION      0.00   413.23     0  03:01           0        2.17       0.033
  WSF200               JUNCTION      0.00   830.04     0  03:05           0        10.8       0.044
  HS02004901           JUNCTION     20.36    20.36     0  03:01      0.0901      0.0904       1.990
  HS02004881           JUNCTION      7.95    84.19     0  03:01      0.0378        0.41       0.110
  HS02004876           JUNCTION     14.96    76.75     0  03:01      0.0728       0.373       0.148
  HS02004870           JUNCTION     14.89    62.15     0  03:01      0.0716         0.3       0.037
  HS02004862           JUNCTION     15.28    47.68     0  03:01      0.0788       0.229       0.076
  HS02004856           JUNCTION     11.18    32.72     0  03:01      0.0539       0.152       0.960
  HS02004852           JUNCTION      0.00    21.94     0  03:01           0      0.0979       0.059
  HS02004848           JUNCTION     34.61    34.61     0  03:01       0.174       0.174       0.028
  HS02004842           JUNCTION      0.00    12.41     0  03:01           0      0.0895      16.998
  HS02004837           JUNCTION     31.84    43.95     0  03:01       0.303        0.38       0.214
  HS02004830           JUNCTION      0.15    43.86     0  03:01     0.00423        0.37       0.335
  HS02004824           JUNCTION     42.39    85.89     0  03:01       0.225       0.594       0.091
  HS02004817           JUNCTION      0.60    86.28     0  03:01      0.0169        0.61       2.809
  HS02004807           JUNCTION     27.35   112.30     0  03:01       0.131       0.725       0.605
  HS02004802           JUNCTION      0.00   111.37     0  03:01           0       0.723       0.548
  HS02004799           JUNCTION     22.08   258.93     0  03:01       0.107        1.24       0.223
  HS02004792           JUNCTION    102.90   237.97     0  03:01        0.47        1.14       0.036
  HS02004788           JUNCTION     34.16   135.93     0  03:01       0.199       0.669       0.059
  HS02004785           JUNCTION      0.15   103.52     0  03:01     0.00423       0.471       0.106
  HS02004777           JUNCTION      0.03   104.16     0  03:01    0.000846       0.472       1.115
  HS02004770           JUNCTION     85.35   105.10     0  03:01       0.385       0.473       0.659
  HS02004480           JUNCTION      0.00   302.45     0  03:01           0        1.46       0.076
  HS02004479           JUNCTION      0.00    44.91     0  03:02           0       0.232       0.317
  HS02004478           JUNCTION      0.00   413.09     0  03:01           0        2.17       0.014
  YS02001745           JUNCTION    336.84   345.19     0  02:27        2.69        2.69       0.333
  YS02001748           JUNCTION      0.04   512.57     0  02:27     0.00127        2.69       0.791
  YS02001751           JUNCTION      0.01   349.48     0  02:17     0.00031        2.66       0.895
  YS02001754           JUNCTION      0.26   344.96     0  03:01     0.00733        2.64       0.940
  YS02001762           JUNCTION      0.00   290.60     0  02:38           0        1.87       1.137
  YS02001765           JUNCTION      0.00   289.97     0  02:38           0        1.87       1.316
  YS02001767           JUNCTION      0.54   289.54     0  02:38      0.0151         1.9       1.905
  YS02001770           JUNCTION    415.94   534.07     0  03:01        3.01        3.36       0.938
  YS02001774           JUNCTION      0.00   535.12     0  03:01           0        1.79       1.418
  YS02001779           JUNCTION      0.01   534.68     0  03:01    0.000141        1.76       0.886
  YS02001882           JUNCTION      0.00    26.96     0  02:28           0      0.0215      12.338
  YS02001884           JUNCTION      0.00    53.31     0  02:28           0      0.0591      11.824
  YS02001759           JUNCTION    399.49   570.75     0  02:39        2.78        4.28       0.535
  YS02001887           JUNCTION    494.68   494.68     0  03:01        3.19        3.23       0.269
  YS02001890           JUNCTION      0.00   495.04     0  03:01           0        3.18       0.298
  YS02001898           JUNCTION      0.00   495.02     0  03:00           0        3.16       0.100
  YS02001901           JUNCTION      0.00   495.14     0  03:01           0        3.16       0.228
  YS02001904           JUNCTION      0.00   494.82     0  03:01           0        3.16       0.207
  YS02001907           JUNCTION      0.00   949.13     0  03:01           0        7.02       0.347
  YS02001910           JUNCTION      0.00   455.48     0  03:01           0        3.87       0.307
  YS02001915           JUNCTION    296.36   455.37     0  03:01        2.25        3.89       0.163
  YS02001918           JUNCTION      0.00   208.58     0  03:31           0        1.64       0.120
  YS02001619           JUNCTION    290.53   290.53     0  03:01        2.24        2.24       0.546
  YS02001629           JUNCTION      0.00   213.15     0  02:17           0        1.69       1.723
  YS02001641           JUNCTION      0.00   396.33     0  02:35           0        4.25       0.494
  YS02001644           JUNCTION    321.01  1313.21     0  03:01        2.59        9.25       0.279
  YS02001652           JUNCTION      0.00   377.69     0  02:59           0        2.35       1.002
  YS02001655           JUNCTION      0.15   391.06     0  02:19     0.00434        2.37       1.044
  YS02001920           JUNCTION      2.87   192.09     0  03:29      0.0809        1.64       0.186
  YS02001923           JUNCTION      0.04   173.84     0  02:49     0.00106        1.55       0.058
  YS02001926           JUNCTION      0.05   156.58     0  03:01     0.00147        1.56       0.210
  YS02001929           JUNCTION    151.13   151.13     0  03:01        1.56        1.56       0.037
  YS02001658           JUNCTION      0.00   597.77     0  02:23           0        2.41       0.882
  YS02001661           JUNCTION      0.00   618.32     0  02:46           0        2.67      -0.347
  YS02001664           JUNCTION    361.21   361.21     0  03:01        2.38        2.65       0.151
  YS02001622           JUNCTION      0.00   291.14     0  03:01           0        2.22       1.444
  YS02001633           JUNCTION    326.74   398.01     0  02:35        2.66        4.31       0.746
  YS02001649           JUNCTION      0.00   823.21     0  02:35           0        5.79       0.645
  YS02001757           JUNCTION      0.00  1580.78     0  02:35           0        9.82       0.945
  YS02001895           JUNCTION      0.00   495.28     0  03:01           0        3.17       0.168
  YS02001625           JUNCTION      0.00   290.76     0  03:01           0        2.19       1.797
  YS02163301           JUNCTION      0.00   197.92     0  02:30           0        1.67       1.452
  YS02163601           JUNCTION      0.11   397.56     0  02:35      0.0031        4.27       0.707
  YS02164001           JUNCTION      0.00   397.50     0  02:35           0        4.25       0.465
  YS02001647           JUNCTION      0.00   631.48     0  03:15           0        4.75       0.596
  YSB1154              JUNCTION     26.18    26.18     0  03:01       0.129        0.13       1.130
  YSB6556              JUNCTION      0.00    25.82     0  03:01           0        0.13       0.969
  YSB1174              JUNCTION     20.52    20.52     0  03:01      0.0948      0.0952       1.368
  YSB1171              JUNCTION      0.00    45.30     0  03:01           0       0.231       2.821
  YS02006553           JUNCTION      0.00   704.00     0  03:31           0        6.59       0.235
  YS02006561           JUNCTION      0.00  1023.72     0  02:47           0        9.47       0.007
  YS02006556           JUNCTION      0.00   703.80     0  03:31           0         6.6       0.177
  YS02006558           JUNCTION    433.40  1023.97     0  02:47        2.93         9.5       0.056
  YS02001783           JUNCTION      0.00  1023.78     0  02:47           0        9.47       0.023
  YS02001784           JUNCTION      1.06  1024.56     0  02:47      0.0299         9.5       0.039
  YS02001786           JUNCTION      0.06  1024.58     0  02:47     0.00159         9.5       0.036
  YS02001788           JUNCTION      0.07  1024.66     0  02:47       0.002         9.5       0.024
  YS02001790           JUNCTION      0.15  1024.59     0  02:47     0.00437         9.5       0.019
  YS02001791           JUNCTION      0.00  1024.43     0  02:47           0         9.5       0.002
  YS02001793           JUNCTION      0.00  1024.32     0  02:47           0         9.5      -0.010
  WSC                  OUTFALL       0.00  1229.05     0  03:08           0        21.1       0.000
  JK-storage           STORAGE       0.00  1024.37     0  02:47           0        9.65     -13.148
  CC-storage           STORAGE       0.00  1580.98     0  02:35           0        8.53       0.700
  XR-storage           STORAGE     844.76   844.76     0  03:01        11.8        12.4      -0.002
  
  
  **********************
  Node Surcharge Summary
  **********************
  
  Surcharging occurs when water rises above the top of the highest conduit.
  ---------------------------------------------------------------------
                                               Max. Height   Min. Depth
                                   Hours       Above Crown    Below Rim
  Node                 Type      Surcharged         Meters       Meters
  ---------------------------------------------------------------------
  WS02004401           JUNCTION        0.26          0.137        1.523
  WS02004402           JUNCTION        0.28          0.137        1.603
  WS02004403           JUNCTION        0.28          0.124        1.906
  WS02004404           JUNCTION        0.51          0.177        2.603
  WS02004406           JUNCTION        0.42          0.116        2.334
  WS02004405           JUNCTION        0.46          0.157        2.643
  WS02006109           JUNCTION        5.33          0.491        1.329
  WS02006110           JUNCTION        2.36          0.241        1.609
  WS02006112           JUNCTION        3.17          0.416        1.264
  WS02006115           JUNCTION        0.19          0.079        2.171
  WS02006116           JUNCTION        0.21          0.084        2.206
  WS02006230           JUNCTION        1.61          0.442        1.128
  WS02006231           JUNCTION        2.58          0.507        1.023
  WS02006232           JUNCTION        5.05          0.662        0.818
  WS02006234           JUNCTION        3.74          0.602        0.638
  WS02006235           JUNCTION        4.48          0.659        0.631
  WS02006238           JUNCTION        4.59          0.678        0.752
  WS02006240           JUNCTION        4.14          0.575        0.815
  WS02006242           JUNCTION        4.31          0.606        0.214
  WS02006243           JUNCTION        3.81          0.498        0.272
  WS02006245           JUNCTION        3.51          0.458        0.392
  WS02006247           JUNCTION        3.55          0.460        0.300
  WS02006248           JUNCTION        2.90          0.375        0.005
  WS02006249           JUNCTION        3.00          0.390        0.000
  WS02006239           JUNCTION        4.27          0.605        0.685
  WS02006251           JUNCTION        1.30          0.346        0.834
  WS02006252           JUNCTION        3.24          0.484        0.616
  WS02006253           JUNCTION        1.34          0.574        1.906
  WS02006256           JUNCTION        6.88          2.050        0.000
  WS02006228           JUNCTION        5.28          0.608        1.592
  YS02001748           JUNCTION        5.28          0.367        0.823
  YS02001751           JUNCTION        5.49          0.558        0.642
  YS02001754           JUNCTION        5.69          0.783        0.367
  YS02001762           JUNCTION        5.87          1.036        0.114
  YS02001765           JUNCTION        5.84          0.984        0.116
  YS02001767           JUNCTION        5.81          0.940        0.090
  YS02001770           JUNCTION        5.80          0.906        0.014
  YS02001774           JUNCTION        5.86          1.012        0.038
  YS02001779           JUNCTION        5.67          0.680        0.000
  YS02001882           JUNCTION        0.93          0.618        0.212
  YS02001884           JUNCTION        0.96          0.661        0.209
  YS02001759           JUNCTION        5.89          1.076        0.134
  YS02001887           JUNCTION        1.03          0.746        0.204
  YS02001890           JUNCTION        1.06          0.760        0.000
  YS02001898           JUNCTION        0.89          0.528        0.212
  YS02001901           JUNCTION        0.99          0.674        0.196
  YS02001904           JUNCTION        0.97          0.637        0.213
  YS02001907           JUNCTION        1.78          0.950        0.000
  YS02001910           JUNCTION        1.10          0.772        0.328
  YS02001915           JUNCTION        0.91          0.575        0.425
  YS02001918           JUNCTION        0.69          0.236        0.574
  YS02001619           JUNCTION        5.47          0.511        0.099
  YS02001629           JUNCTION        5.48          0.470        0.000
  YS02001641           JUNCTION        5.85          0.934        0.166
  YS02001644           JUNCTION        5.85          0.920        0.000
  YS02001652           JUNCTION        5.73          1.130        0.000
  YS02001655           JUNCTION        5.51          1.200        0.000
  YS02001920           JUNCTION        0.73          0.306        0.834
  YS02001658           JUNCTION        5.34          1.236        0.064
  YS02001661           JUNCTION        0.20          1.390        0.000
  YS02001622           JUNCTION        5.50          0.522        0.098
  YS02001633           JUNCTION        5.83          0.925        0.135
  YS02001649           JUNCTION        5.88          1.050        0.000
  YS02001757           JUNCTION        5.97          1.183        0.027
  YS02001895           JUNCTION        0.90          0.564        0.186
  YS02001625           JUNCTION        5.76          0.780        0.000
  YS02163301           JUNCTION        5.81          0.881        0.149
  YS02163601           JUNCTION        5.87          0.988        0.092
  YS02164001           JUNCTION        5.83          0.918        0.182
  YS02001647           JUNCTION        5.75          0.806        0.094
  YS02006553           JUNCTION        1.86          0.965        0.225
  YS02006561           JUNCTION        0.74          0.262        0.888
  YS02006556           JUNCTION        1.31          0.882        0.468
  YS02006558           JUNCTION        1.29          0.862        0.538
  YS02001783           JUNCTION        1.18          0.789        0.811
  YS02001784           JUNCTION        1.15          0.685        0.805
  YS02001786           JUNCTION        1.10          0.583        0.847
  YS02001788           JUNCTION        1.05          0.484        0.996
  YS02001790           JUNCTION        1.76          1.157        0.000
  YS02001791           JUNCTION        1.86          0.838        1.082
  YS02001793           JUNCTION        2.13          0.948        1.652
  
  
  *********************
  Node Flooding Summary
  *********************
  
  Flooding refers to all water that overflows a node, whether it ponds or not.
  --------------------------------------------------------------------------
                                                             Total   Maximum
                                 Maximum   Time of Max       Flood    Ponded
                        Hours       Rate    Occurrence      Volume     Depth
  Node                 Flooded       LPS   days hr:min    10^6 ltr    Meters
  --------------------------------------------------------------------------
  WS02006249              1.23    260.78      0  03:00       0.349     0.000
  WS02006256              4.20    810.39      0  03:02       6.883     0.000
  YS02001779              2.25    534.66      0  03:01       1.735     0.000
  YS02001890              0.01      1.05      0  02:58       0.000     0.000
  YS02001907              0.54    398.86      0  03:01       0.411     0.000
  YS02001629              0.01      2.83      0  02:29       0.000     0.000
  YS02001644              3.41   1313.09      0  03:01       6.901     0.000
  YS02001652              0.01      9.45      0  02:46       0.000     0.000
  YS02001655              0.01    241.89      0  02:19       0.000     0.000
  YS02001661              0.01    148.34      0  02:46       0.000     0.000
  YS02001649              0.05     45.15      0  02:46       0.002     0.000
  YS02001625              1.19    235.73      0  03:01       0.465     0.000
  YS02001790              0.01    210.58      0  04:43       0.000     0.000
  JK-storage              0.62    707.95      0  02:30       0.605     0.000
  XR-storage              3.06    464.72      0  03:01       1.875     0.000
  
  
  **********************
  Storage Volume Summary
  **********************
  
  --------------------------------------------------------------------------------------------------
                         Average     Avg  Evap Exfil       Maximum     Max    Time of Max    Maximum
                          Volume    Pcnt  Pcnt  Pcnt        Volume    Pcnt     Occurrence    Outflow
  Storage Unit           1000 m3    Full  Loss  Loss       1000 m3    Full    days hr:min        LPS
  --------------------------------------------------------------------------------------------------
  JK-storage               0.140      48     0     0         0.291     100       0  02:26     983.00
  CC-storage               3.146      20     0     0         3.935      25       0  03:13     400.00
  XR-storage               0.786      85     0     0         0.926     100       0  02:55     380.00
  
  
  ***********************
  Outfall Loading Summary
  ***********************
  
  ---------------------------------------------------------------------------------------------------------------------------------
                         Flow       Avg       Max       Total         Total         Total         Total         Total         Total
                         Freq      Flow      Flow      Volume           COD            SS            TN            TP         NH4-N
  Outfall Node           Pcnt       LPS       LPS    10^6 ltr            kg            kg            kg            kg            kg
  ---------------------------------------------------------------------------------------------------------------------------------
  WSC                   99.98    847.06   1229.05      21.129      2413.499      4129.352       153.278        17.995        92.679
  ---------------------------------------------------------------------------------------------------------------------------------
  System                99.98    847.06   1229.05      21.129      2413.499      4129.352       153.278        17.995        92.679
  
  
  ********************
  Link Flow Summary
  ********************
  
  -----------------------------------------------------------------------------
                                 Maximum  Time of Max   Maximum    Max/    Max/
                                  |Flow|   Occurrence   |Veloc|    Full    Full
  Link                 Type          LPS  days hr:min     m/sec    Flow   Depth
  -----------------------------------------------------------------------------
  WS02003066WSF200     CONDUIT    830.04     0  03:05      2.94    0.14    0.30
  WS02006287WS02006284 CONDUIT    413.48     0  03:02      2.04    0.19    0.30
  WS02006284WS02006280 CONDUIT    413.63     0  03:02      2.28    0.17    0.28
  WS02006280WS02006229 CONDUIT    413.63     0  03:02      3.59    0.09    0.25
  WS02006229WS02006228 CONDUIT    816.91     0  03:02      1.63    2.71    1.00
  WS02006256WS02006235 CONDUIT    288.92     0  00:00      4.23    3.06    1.00
  WS02006253WS02006251 CONDUIT    148.89     0  04:10      0.58    0.45    1.00
  WS02006252WS02006251 CONDUIT    403.37     0  04:11      3.21    1.48    1.00
  WS02006251WS02006249 CONDUIT    486.11     0  03:00      1.26    1.40    1.00
  WS02006249WS02006248 CONDUIT    416.15     0  04:30      1.08    2.28    1.00
  WS02006248WS02006247 CONDUIT    415.69     0  04:30      1.08    0.90    1.00
  WS02006247WS02006245 CONDUIT    415.48     0  04:30      1.08    3.29    1.00
  WS02006245WS02006243 CONDUIT    416.24     0  04:30      1.08    1.23    1.00
  WS02006243WS02006242 CONDUIT    416.19     0  04:30      1.08    0.89    1.00
  WS02006242WS02006240 CONDUIT    416.61     0  04:30      1.08    1.65    1.00
  WS02006240WS02006239 CONDUIT    417.54     0  04:30      1.08    1.31    1.00
  WS02006239WS02006238 CONDUIT    417.79     0  04:30      1.09    1.34    1.00
  WS02006238WS02006235 CONDUIT    418.79     0  04:30      1.45    0.93    1.00
  WS02006235WS02006234 CONDUIT    522.32     0  05:31      1.36    5.51    1.00
  WS02006234WS02006232 CONDUIT    521.77     0  05:33      1.39    1.06    1.00
  WS02006232WS02006231 CONDUIT    521.71     0  07:09      1.36    1.09    1.00
  WS02006231WS02006230 CONDUIT    521.73     0  05:31      1.36    7.91    1.00
  WS02006230WS02006229 CONDUIT    532.92     0  06:49      1.38   11.86    1.00
  WS02006228WS02006109 CONDUIT    817.16     0  03:02      1.63    3.57    1.00
  WS02006116WS02004401 CONDUIT    831.33     0  03:03      1.06    1.15    1.00
  WS02006115WS02006116 CONDUIT    831.22     0  03:03      1.06    1.07    1.00
  WS02006113WS02006111 CONDUIT    817.57     0  03:02      2.57    0.98    0.81
  WS02006112WS02006115 CONDUIT    830.96     0  03:03      1.06    0.49    1.00
  WS02006111WS02006112 CONDUIT    818.22     0  03:03      1.73    0.39    0.90
  WS02006110WS02006113 CONDUIT    818.24     0  03:02      1.74    0.74    0.90
  WS02006109WS02006110 CONDUIT    818.19     0  03:02      1.63    1.57    1.00
  WS02004411WS02004412 CONDUIT    829.88     0  03:04      1.16    1.18    0.85
  WS02004401WS02004402 CONDUIT    831.70     0  03:03      1.06    1.00    1.00
  WS02004413WS02003067 CONDUIT    829.88     0  03:04      1.42    0.36    0.70
  WS02004412WS02004413 CONDUIT    829.86     0  03:04      1.10    0.56    0.91
  WS02004410WS02004411 CONDUIT    830.01     0  03:04      1.15    1.13    0.86
  WS02004409WS02004410 CONDUIT    830.24     0  03:03      1.15    1.07    0.87
  WS02004407WS02004409 CONDUIT    830.70     0  03:03      1.64    0.29    0.62
  WS02004406WS02004407 CONDUIT    830.92     0  03:03      1.45    0.37    0.69
  WS02004405WS02004406 CONDUIT    831.08     0  03:03      1.10    1.64    1.00
  WS02004404WS02004405 CONDUIT    832.19     0  03:02      1.15    8.15    1.00
  WS02004403WS02004404 CONDUIT    831.46     0  03:03      1.06    0.60    1.00
  WS02004402WS02004403 CONDUIT    832.15     0  03:03      1.06    1.20    1.00
  WS02004139WS02001211 CONDUIT    383.84     0  03:15      0.90    0.49    0.63
  WS02004138WS02004139 CONDUIT    395.52     0  00:00      3.64    0.08    0.46
  WS02003067WS02003066 CONDUIT    830.00     0  03:05      1.54    0.27    0.48
  WS02001213WS02003059 CONDUIT    402.63     0  03:15      0.89    0.66    0.84
  WS02001212WS02001213 CONDUIT    398.36     0  03:15      1.32    0.61    0.53
  WS02001211WS02001212 CONDUIT    394.82     0  03:15      0.78    0.30    0.69
  WS02003072WS02003073 CONDUIT   1227.13     0  03:07      1.90    2.65    0.56
  WS02003069WS02003072 CONDUIT   1227.06     0  03:07      1.77    0.59    0.59
  WS02003060WS02003069 CONDUIT   1226.86     0  03:06      1.99    0.48    0.54
  WS02003059WS02003060 CONDUIT    408.24     0  03:14      0.95    0.27    0.74
  HS02004901HS02004770 CONDUIT     20.53     0  03:01      0.07    0.08    0.42
  HS02004876HS02004881 CONDUIT     76.55     0  03:01      0.95    0.81    0.12
  HS02004870HS02004876 CONDUIT     61.90     0  03:01      0.65    0.04    0.14
  HS02004842HS02004848 CONDUIT     12.41     0  03:01      0.06    0.01    0.31
  HS02004837HS02004842 CONDUIT     12.98     0  03:02      0.42    0.01    0.32
  HS02004830HS02004837 CONDUIT     43.71     0  03:01      0.57    0.04    0.11
  HS02004824HS02004830 CONDUIT     43.67     0  03:01      0.59    0.06    0.11
  HS02004817HS02004824 CONDUIT     85.68     0  03:01      0.26    0.04    0.48
  HS02004770HS02004777 CONDUIT    104.13     0  03:01      0.35    0.19    0.43
  HS02004799HS02004480 CONDUIT    258.30     0  03:01      0.83    0.33    0.44
  HS02004792HS02004799 CONDUIT    237.05     0  03:01      0.95    0.15    0.36
  HS02004788HS02004792 CONDUIT    135.43     0  03:01      1.06    0.09    0.18
  HS02004785HS02004788 CONDUIT    103.22     0  03:02      0.71    0.78    0.21
  HS02004777HS02004785 CONDUIT    103.37     0  03:01      0.42    0.13    0.35
  HS02004480HS02004478 CONDUIT    302.30     0  03:01      1.26    1.27    0.34
  HS02004479HS02004480 CONDUIT     46.29     0  03:02      0.32    0.04    0.43
  HS02004862HS02004870 CONDUIT     47.43     0  03:01      0.66    0.05    0.10
  HS02004848HS02004852 CONDUIT     21.94     0  03:01      0.45    0.02    0.07
  HS02004856HS02004862 CONDUIT     32.47     0  03:01      0.48    0.03    0.10
  HS02004852HS02004856 CONDUIT     21.85     0  03:02      0.25    0.02    0.13
  HS02004802HS02004478 CONDUIT    111.52     0  03:02      0.45    0.10    0.36
  HS02004478WS02006287 CONDUIT    413.23     0  03:01      1.75    0.12    0.26
  HS02004817HS02004807 CONDUIT     86.14     0  03:01      0.19    0.05    0.63
  HS02004807HS02004802 CONDUIT    111.37     0  03:01      0.38    0.21    0.42
  YS02001759YS02001757 CONDUIT    569.96     0  02:38      0.73    0.41    1.00
  YS02001762YS02001759 CONDUIT    290.20     0  02:38      0.37    0.33    1.00
  YS02001765YS02001762 CONDUIT    290.60     0  02:38      0.37    0.27    1.00
  YS02001770YS02001767 CONDUIT    289.00     0  02:38      0.37    1.14    1.00
  YS02001774YS02001770 CONDUIT    535.12     0  03:01      0.68    0.34    1.00
  YS02001779YS02001774 CONDUIT    534.67     0  03:01      0.68    0.27    1.00
  YS02001649YS02001757 CONDUIT    822.90     0  02:35      1.05    0.50    1.00
  YS02001767YS02001765 CONDUIT    289.97     0  02:38      0.37    0.36    1.00
  YS02006561YS02001783 CONDUIT   1023.78     0  02:47      2.15    0.53    1.00
  YS02001783YS02001784 CONDUIT   1023.50     0  02:47      2.04    1.41    1.00
  YS02001784YS02001785 CONDUIT   1024.52     0  02:47      2.04    2.38    1.00
  YS02001788YS02001790 CONDUIT   1024.43     0  02:47      2.44    0.76    1.00
  YS02001790YS02001791 CONDUIT   1024.43     0  02:47      2.91    1.11    1.00
  YS02001791YS02001793 CONDUIT   1024.32     0  02:47      5.75    0.44    1.00
  YS02001910YS02001907 CONDUIT    455.33     0  03:01      0.58    0.26    1.00
  YS02001786YS02001788 CONDUIT   1024.59     0  02:47      2.31    1.97    1.00
  YS02001915YS02001910 CONDUIT    455.48     0  03:01      0.59    0.23    1.00
  YS02001918YS02001915 CONDUIT    245.90     0  03:31      0.44    0.14    1.00
  YS02001923YS02001920 CONDUIT    189.22     0  03:29      0.71    0.08    1.00
  YS02001926YS02001923 CONDUIT    173.81     0  02:49      0.83    0.25    0.86
  YS02001929YS02001926 CONDUIT    156.53     0  03:01      0.89    0.07    0.76
  YS02001920YS02001918 CONDUIT    208.58     0  03:31      0.70    0.20    1.00
  YS02001629YS02163301 CONDUIT    197.92     0  02:30      0.25    0.24    1.00
  YS02001619YS02001622 CONDUIT    291.14     0  03:01      0.61    0.43    1.00
  YS02001622YS02001625 CONDUIT    290.76     0  03:01      0.37    0.16    1.00
  YS02001625YS02001629 CONDUIT    213.15     0  02:17      0.27    0.10    1.00
  YS02163301YS02001633 CONDUIT    199.46     0  02:28      0.25    0.19    1.00
  YS02163601YS02164001 CONDUIT    397.50     0  02:35      0.51    0.35    1.00
  YS02164001YS02001641 CONDUIT    396.33     0  02:35      0.50    0.54    1.00
  YS02001641YS02001644 CONDUIT    398.24     0  02:28      0.51    1.29    1.00
  YS02001647YS02001649 CONDUIT    631.48     0  03:15      0.80    0.33    1.00
  YS02006553YS02006556 CONDUIT    703.80     0  03:31      0.90    0.60    1.00
  YS02006556YS02006558 CONDUIT    704.10     0  03:31      0.90    0.56    1.00
  YSB6556YSB1171       CONDUIT     25.76     0  03:03      0.09    0.03    0.70
  YS02001907YS02006553 CONDUIT    704.00     0  03:31      0.78    0.83    1.00
  YS02006558YS02006561 CONDUIT   1023.72     0  02:47      3.62    2.26    1.00
  YS02001633YS02163601 CONDUIT    397.45     0  02:35      0.51    0.42    1.00
  YS02001644YS02001647 CONDUIT    631.54     0  03:15      0.80    0.37    1.00
  YS02001745YS02001748 CONDUIT    512.52     0  02:27      1.47    0.20    0.96
  YS02001748YS02001751 CONDUIT    349.47     0  02:17      1.06    0.18    1.00
  YS02001751YS02001754 CONDUIT    344.70     0  03:01      0.92    0.17    1.00
  YS02001754YS02001757 CONDUIT    344.17     0  03:01      0.44    0.14    1.00
  YS02001882YS02001884 CONDUIT     26.96     0  02:28      0.13    0.03    1.00
  YS02001884YS02001887 CONDUIT     53.31     0  02:28      0.09    0.07    1.00
  YS02001890YS02001895 CONDUIT    495.28     0  03:01      0.63    0.23    1.00
  YS02001895YS02001898 CONDUIT    495.02     0  03:00      0.63    0.86    1.00
  YS02001898YS02001901 CONDUIT    495.14     0  03:01      0.63    0.32    1.00
  YS02001901YS02001904 CONDUIT    494.82     0  03:01      0.63    0.77    1.00
  YS02001904YS02001907 CONDUIT    495.62     0  03:01      0.63    0.17    1.00
  YS02001887YS02001890 CONDUIT    495.04     0  03:01      0.63    0.85    1.00
  YS02001652YS02001649 CONDUIT    379.37     0  03:00      0.63    0.19    1.00
  YS02001655YS02001652 CONDUIT    377.69     0  02:59      0.98    0.18    1.00
  YS02001658YS02001655 CONDUIT    390.91     0  02:19      1.22    0.17    1.00
  YS02001661YS02001658 CONDUIT    597.77     0  02:23      1.55    0.23    1.00
  YS02001664YS02001661 CONDUIT    618.32     0  02:46      1.43    0.19    0.76
  YSB1154YSB6556       CONDUIT     25.82     0  03:01      0.17    0.05    0.59
  YSB1174YSB1171       CONDUIT     20.15     0  03:01      0.07    0.03    0.70
  YSB1171HS02004479    CONDUIT     44.91     0  03:02      0.54    0.03    0.55
  HS02004881HS02006253 CONDUIT     84.63     0  02:56      2.12    0.02    0.53
  YS02001793JiankangQianchi CONDUIT   1024.37     0  02:47     16.68    0.08    1.00
  YS02001757CaochengTiaoxuchi CONDUIT   1580.98     0  02:35      2.02    0.69    1.00
  WSF200WS02003060     CONDUIT    830.23     0  03:05      1.85    0.18    0.42
  1                    CONDUIT   1229.05     0  03:08      3.51    0.43    0.46
  CC-Pump-1            PUMP       200.00     0  03:20              1.00
  CC-Pump-2            PUMP       200.00     0  04:10              1.00
  JK-Pump-1            PUMP       300.00     0  00:00              1.00
  JK-Pump-2            PUMP       683.00     0  02:00              1.00
  XR-Pump-1            PUMP        95.00     0  00:00              1.00
  XR-Pump-2            PUMP        95.00     0  00:00              1.00
  XR-Pump-3            PUMP        95.00     0  00:00              1.00
  XR-Pump-4            PUMP        95.00     0  00:00              1.00
  
  
  ***************************
  Flow Classification Summary
  ***************************
  
  -------------------------------------------------------------------------------------
                      Adjusted    ---------- Fraction of Time in Flow Class ---------- 
                       /Actual         Up    Down  Sub   Sup   Up    Down  Norm  Inlet 
  Conduit               Length    Dry  Dry   Dry   Crit  Crit  Crit  Crit  Ltd   Ctrl  
  -------------------------------------------------------------------------------------
  WS02003066WSF200        1.00   0.01  0.02  0.00  0.00  0.97  0.00  0.00  0.51  0.00
  WS02006287WS02006284    1.00   0.03  0.01  0.00  0.58  0.37  0.00  0.00  0.62  0.00
  WS02006284WS02006280    1.00   0.04  0.00  0.00  0.00  0.00  0.00  0.96  0.00  0.00
  WS02006280WS02006229    1.00   0.04  0.00  0.00  0.00  0.02  0.00  0.94  0.02  0.00
  WS02006229WS02006228    1.00   0.00  0.00  0.00  1.00  0.00  0.00  0.00  0.00  0.00
  WS02006256WS02006235    1.00   0.00  0.00  0.00  1.00  0.00  0.00  0.00  0.00  0.00
  WS02006253WS02006251    1.00   0.02  0.02  0.00  0.96  0.00  0.01  0.00  0.00  0.00
  WS02006252WS02006251    1.00   0.19  0.00  0.00  0.12  0.00  0.69  0.00  0.00  0.00
  WS02006251WS02006249    1.00   0.00  0.00  0.00  1.00  0.00  0.00  0.00  0.20  0.00
  WS02006249WS02006248    1.00   0.00  0.01  0.00  0.92  0.00  0.07  0.00  0.00  0.00
  WS02006248WS02006247    1.00   0.01  0.00  0.00  0.99  0.00  0.00  0.00  0.13  0.00
  WS02006247WS02006245    1.00   0.00  0.00  0.00  0.99  0.00  0.00  0.00  0.00  0.00
  WS02006245WS02006243    1.00   0.00  0.00  0.00  0.96  0.00  0.00  0.03  0.00  0.00
  WS02006243WS02006242    1.00   0.00  0.00  0.00  1.00  0.00  0.00  0.00  0.20  0.00
  WS02006242WS02006240    1.00   0.00  0.00  0.00  1.00  0.00  0.00  0.00  0.00  0.00
  WS02006240WS02006239    1.00   0.00  0.00  0.00  0.95  0.00  0.00  0.05  0.01  0.00
  WS02006239WS02006238    1.00   0.00  0.00  0.00  1.00  0.00  0.00  0.00  0.12  0.00
  WS02006238WS02006235    1.00   0.00  0.00  0.00  1.00  0.00  0.00  0.00  0.00  0.00
  WS02006235WS02006234    1.00   0.00  0.00  0.00  0.96  0.00  0.04  0.00  0.00  0.00
  WS02006234WS02006232    1.00   0.00  0.00  0.00  1.00  0.00  0.00  0.00  0.08  0.00
  WS02006232WS02006231    1.00   0.00  0.00  0.00  1.00  0.00  0.00  0.00  0.00  0.00
  WS02006231WS02006230    1.00   0.00  0.00  0.00  0.94  0.00  0.05  0.00  0.00  0.00
  WS02006230WS02006229    1.00   0.00  0.00  0.00  1.00  0.00  0.00  0.00  0.00  0.00
  WS02006228WS02006109    1.00   0.00  0.00  0.00  1.00  0.00  0.00  0.00  0.00  0.00
  WS02006116WS02004401    1.00   0.01  0.00  0.00  0.99  0.00  0.00  0.00  0.00  0.00
  WS02006115WS02006116    1.00   0.01  0.00  0.00  0.99  0.00  0.00  0.00  0.00  0.00
  WS02006113WS02006111    1.00   0.01  0.00  0.00  0.02  0.97  0.00  0.00  0.15  0.00
  WS02006112WS02006115    1.00   0.01  0.00  0.00  0.99  0.00  0.00  0.00  0.00  0.00
  WS02006111WS02006112    1.00   0.01  0.00  0.00  0.99  0.00  0.00  0.00  0.92  0.00
  WS02006110WS02006113    1.00   0.00  0.00  0.00  0.99  0.00  0.00  0.00  0.00  0.00
  WS02006109WS02006110    1.00   0.00  0.00  0.00  0.99  0.00  0.00  0.00  0.00  0.00
  WS02004411WS02004412    1.00   0.02  0.00  0.00  0.98  0.00  0.00  0.00  0.00  0.00
  WS02004401WS02004402    1.00   0.01  0.00  0.00  0.99  0.00  0.00  0.00  0.00  0.00
  WS02004413WS02003067    1.00   0.02  0.01  0.00  0.00  0.00  0.97  0.00  0.00  0.00
  WS02004412WS02004413    1.00   0.02  0.00  0.00  0.98  0.00  0.00  0.00  0.01  0.00
  WS02004410WS02004411    1.00   0.02  0.00  0.00  0.98  0.00  0.00  0.00  0.00  0.00
  WS02004409WS02004410    1.00   0.02  0.00  0.00  0.98  0.00  0.00  0.00  0.02  0.00
  WS02004407WS02004409    1.00   0.02  0.00  0.00  0.98  0.00  0.00  0.00  0.95  0.00
  WS02004406WS02004407    1.00   0.00  0.02  0.00  0.98  0.00  0.00  0.00  0.00  0.00
  WS02004405WS02004406    1.00   0.00  0.00  0.00  1.00  0.00  0.00  0.00  0.00  0.00
  WS02004404WS02004405    1.00   0.00  0.00  0.00  1.00  0.00  0.00  0.00  0.00  0.00
  WS02004403WS02004404    1.00   0.00  0.01  0.00  0.99  0.00  0.00  0.00  0.00  0.00
  WS02004402WS02004403    1.00   0.01  0.00  0.00  0.99  0.00  0.00  0.00  0.00  0.00
  WS02004139WS02001211    1.00   0.00  0.00  0.00  1.00  0.00  0.00  0.00  0.00  0.00
  WS02004138WS02004139    1.00   0.00  0.00  0.00  1.00  0.00  0.00  0.00  1.00  0.00
  WS02003067WS02003066    1.00   0.03  0.00  0.00  0.97  0.00  0.00  0.00  0.00  0.00
  WS02001213WS02003059    1.00   0.00  0.00  0.00  1.00  0.00  0.00  0.00  0.00  0.00
  WS02001212WS02001213    1.00   0.00  0.00  0.00  0.91  0.00  0.09  0.00  0.00  0.00
  WS02001211WS02001212    1.00   0.00  0.00  0.00  1.00  0.00  0.00  0.00  0.00  0.00
  WS02003072WS02003073    1.00   0.00  0.00  0.00  0.00  0.00  0.00  1.00  0.00  0.00
  WS02003069WS02003072    1.00   0.00  0.00  0.00  1.00  0.00  0.00  0.00  0.10  0.00
  WS02003060WS02003069    1.00   0.00  0.00  0.00  0.99  0.01  0.00  0.00  0.07  0.00
  WS02003059WS02003060    1.00   0.00  0.00  0.00  1.00  0.00  0.00  0.00  0.01  0.00
  HS02004901HS02004770    1.00   0.04  0.00  0.00  0.96  0.00  0.00  0.00  0.00  0.00
  HS02004876HS02004881    1.00   0.01  0.00  0.00  0.92  0.07  0.00  0.00  0.00  0.00
  HS02004870HS02004876    1.00   0.00  0.00  0.00  0.99  0.00  0.00  0.00  0.95  0.00
  HS02004842HS02004848    1.00   0.00  0.04  0.00  0.96  0.00  0.00  0.00  0.55  0.00
  HS02004837HS02004842    1.00   0.00  0.00  0.00  1.00  0.00  0.00  0.00  0.11  0.00
  HS02004830HS02004837    1.00   0.00  0.00  0.00  1.00  0.00  0.00  0.00  0.99  0.00
  HS02004824HS02004830    1.00   0.00  0.00  0.00  1.00  0.00  0.00  0.00  0.00  0.00
  HS02004817HS02004824    1.00   0.00  0.00  0.00  1.00  0.00  0.00  0.00  1.00  0.00
  HS02004770HS02004777    1.00   0.00  0.04  0.00  0.96  0.00  0.00  0.00  0.02  0.00
  HS02004799HS02004480    1.00   0.00  0.01  0.00  0.96  0.00  0.03  0.00  0.00  0.00
  HS02004792HS02004799    1.00   0.00  0.00  0.00  1.00  0.00  0.00  0.00  0.98  0.00
  HS02004788HS02004792    1.00   0.00  0.00  0.00  1.00  0.00  0.00  0.00  0.98  0.00
  HS02004785HS02004788    1.00   0.00  0.00  0.00  1.00  0.00  0.00  0.00  0.00  0.00
  HS02004777HS02004785    1.00   0.00  0.00  0.00  1.00  0.00  0.00  0.00  0.12  0.00
  HS02004480HS02004478    1.00   0.04  0.00  0.00  0.67  0.00  0.00  0.29  0.00  0.00
  HS02004479HS02004480    1.00   0.01  0.00  0.00  0.99  0.00  0.00  0.00  0.11  0.00
  HS02004862HS02004870    1.00   0.00  0.00  0.00  1.00  0.00  0.00  0.00  0.03  0.00
  HS02004848HS02004852    1.00   0.04  0.00  0.00  0.96  0.00  0.00  0.00  0.62  0.00
  HS02004856HS02004862    1.00   0.00  0.05  0.00  0.95  0.00  0.00  0.00  0.83  0.00
  HS02004852HS02004856    1.00   0.04  0.00  0.00  0.96  0.00  0.00  0.00  0.85  0.00
  HS02004802HS02004478    1.00   0.04  0.00  0.00  0.96  0.00  0.00  0.00  0.02  0.00
  HS02004478WS02006287    1.00   0.05  0.00  0.00  0.75  0.20  0.00  0.00  0.64  0.00
  HS02004817HS02004807    1.00   0.00  0.04  0.00  0.96  0.00  0.00  0.00  0.01  0.00
  HS02004807HS02004802    1.00   0.04  0.00  0.00  0.96  0.00  0.00  0.00  0.00  0.00
  YS02001759YS02001757    1.00   0.00  0.00  0.00  1.00  0.00  0.00  0.00  0.16  0.00
  YS02001762YS02001759    1.00   0.00  0.00  0.00  1.00  0.00  0.00  0.00  0.03  0.00
  YS02001765YS02001762    1.00   0.00  0.00  0.00  1.00  0.00  0.00  0.00  0.13  0.00
  YS02001770YS02001767    1.00   0.00  0.00  0.00  1.00  0.00  0.00  0.00  0.00  0.00
  YS02001774YS02001770    1.00   0.00  0.04  0.00  0.96  0.00  0.00  0.00  0.03  0.00
  YS02001779YS02001774    1.00   0.00  0.00  0.00  1.00  0.00  0.00  0.00  0.18  0.00
  YS02001649YS02001757    1.00   0.00  0.00  0.00  1.00  0.00  0.00  0.00  0.16  0.00
  YS02001767YS02001765    1.00   0.00  0.00  0.00  1.00  0.00  0.00  0.00  0.00  0.00
  YS02006561YS02001783    1.00   0.05  0.00  0.00  0.37  0.58  0.00  0.00  0.47  0.00
  YS02001783YS02001784    1.00   0.00  0.05  0.00  0.95  0.00  0.00  0.00  0.00  0.00
  YS02001784YS02001785    1.00   0.00  0.00  0.00  1.00  0.00  0.00  0.00  0.17  0.00
  YS02001788YS02001790    1.00   0.00  0.00  0.00  0.42  0.58  0.00  0.00  0.39  0.00
  YS02001790YS02001791    1.00   0.00  0.00  0.00  0.38  0.62  0.00  0.00  0.49  0.00
  YS02001791YS02001793    1.00   0.00  0.00  0.00  0.41  0.59  0.00  0.00  0.02  0.00
  YS02001910YS02001907    1.00   0.00  0.00  0.00  0.99  0.00  0.00  0.01  0.12  0.00
  YS02001786YS02001788    1.00   0.00  0.00  0.00  0.40  0.60  0.00  0.00  0.00  0.00
  YS02001915YS02001910    1.00   0.00  0.00  0.00  0.99  0.01  0.00  0.00  0.15  0.00
  YS02001918YS02001915    1.00   0.00  0.00  0.00  0.99  0.01  0.00  0.00  0.55  0.00
  YS02001923YS02001920    1.00   0.00  0.00  0.00  1.00  0.00  0.00  0.00  0.84  0.00
  YS02001926YS02001923    1.00   0.00  0.02  0.00  0.15  0.00  0.82  0.00  0.00  0.00
  YS02001929YS02001926    1.00   0.00  0.04  0.00  0.96  0.00  0.00  0.00  0.76  0.00
  YS02001920YS02001918    1.00   0.00  0.00  0.00  1.00  0.00  0.00  0.00  0.00  0.00
  YS02001629YS02163301    1.00   0.04  0.00  0.00  0.95  0.00  0.00  0.00  0.00  0.00
  YS02001619YS02001622    1.00   0.04  0.00  0.00  0.96  0.00  0.00  0.00  0.00  0.00
  YS02001622YS02001625    1.00   0.04  0.00  0.00  0.96  0.00  0.00  0.00  0.04  0.00
  YS02001625YS02001629    1.00   0.04  0.01  0.00  0.93  0.00  0.02  0.00  0.00  0.00
  YS02163301YS02001633    1.00   0.00  0.04  0.00  0.96  0.00  0.00  0.00  0.00  0.00
  YS02163601YS02164001    1.00   0.00  0.03  0.00  0.97  0.00  0.00  0.00  0.00  0.00
  YS02164001YS02001641    1.00   0.00  0.02  0.00  0.97  0.00  0.00  0.00  0.06  0.00
  YS02001641YS02001644    1.00   0.00  0.00  0.00  1.00  0.00  0.00  0.00  0.00  0.00
  YS02001647YS02001649    1.00   0.00  0.05  0.00  0.95  0.00  0.00  0.00  0.01  0.00
  YS02006553YS02006556    1.00   0.01  0.00  0.00  0.99  0.00  0.00  0.00  0.03  0.00
  YS02006556YS02006558    1.00   0.00  0.00  0.00  1.00  0.00  0.00  0.00  0.00  0.00
  YSB6556YSB1171          1.00   0.02  0.02  0.00  0.96  0.00  0.00  0.00  0.00  0.00
  YS02001907YS02006553    1.00   0.00  0.01  0.00  0.99  0.00  0.00  0.00  0.00  0.00
  YS02006558YS02006561    1.00   0.05  0.00  0.00  0.16  0.79  0.00  0.00  0.49  0.00
  YS02001633YS02163601    1.00   0.00  0.00  0.00  1.00  0.00  0.00  0.00  0.15  0.00
  YS02001644YS02001647    1.00   0.00  0.05  0.00  0.95  0.00  0.00  0.00  0.00  0.00
  YS02001745YS02001748    1.00   0.00  0.00  0.00  0.91  0.01  0.00  0.09  0.04  0.00
  YS02001748YS02001751    1.00   0.00  0.00  0.00  0.97  0.03  0.00  0.00  0.15  0.00
  YS02001751YS02001754    1.00   0.00  0.00  0.00  0.94  0.00  0.00  0.06  0.02  0.00
  YS02001754YS02001757    1.00   0.00  0.00  0.00  1.00  0.00  0.00  0.00  0.18  0.00
  YS02001882YS02001884    1.00   0.04  0.00  0.00  0.96  0.00  0.00  0.00  0.00  0.00
  YS02001884YS02001887    1.00   0.02  0.01  0.00  0.97  0.00  0.00  0.00  0.00  0.00
  YS02001890YS02001895    1.00   0.00  0.04  0.00  0.95  0.00  0.00  0.00  0.00  0.00
  YS02001895YS02001898    1.00   0.05  0.00  0.00  0.94  0.00  0.01  0.00  0.00  0.00
  YS02001898YS02001901    1.00   0.05  0.00  0.00  0.95  0.00  0.00  0.00  0.01  0.00
  YS02001901YS02001904    1.00   0.05  0.00  0.00  0.95  0.00  0.00  0.00  0.00  0.00
  YS02001904YS02001907    1.00   0.00  0.05  0.00  0.95  0.00  0.00  0.00  0.00  0.00
  YS02001887YS02001890    1.00   0.00  0.00  0.00  0.99  0.00  0.01  0.00  0.00  0.00
  YS02001652YS02001649    1.00   0.00  0.00  0.00  1.00  0.00  0.00  0.00  0.16  0.00
  YS02001655YS02001652    1.00   0.00  0.00  0.00  0.94  0.00  0.00  0.06  0.02  0.00
  YS02001658YS02001655    1.00   0.00  0.04  0.00  0.93  0.03  0.00  0.00  0.08  0.00
  YS02001661YS02001658    1.00   0.04  0.00  0.00  0.91  0.05  0.00  0.00  0.08  0.00
  YS02001664YS02001661    1.00   0.04  0.00  0.00  0.91  0.05  0.00  0.00  0.19  0.00
  YSB1154YSB6556          1.00   0.04  0.00  0.00  0.96  0.00  0.00  0.00  0.01  0.00
  YSB1174YSB1171          1.00   0.02  0.01  0.00  0.97  0.00  0.00  0.00  0.00  0.00
  YSB1171HS02004479       1.00   0.02  0.00  0.00  0.98  0.00  0.00  0.00  0.10  0.00
  HS02004881HS02006253    1.00   0.02  0.00  0.00  0.78  0.01  0.00  0.19  0.62  0.00
  YS02001793JiankangQianchi    1.00   0.00  0.00  0.00  0.64  0.36  0.00  0.00  0.38  0.00
  YS02001757CaochengTiaoxuchi    1.00   0.00  0.07  0.00  0.93  0.00  0.00  0.00  0.00  0.00
  WSF200WS02003060        1.00   0.00  0.01  0.00  0.98  0.01  0.00  0.00  0.17  0.00
  1                       1.00   0.00  0.00  0.00  0.00  1.00  0.00  0.00  0.56  0.00
  
  
  *************************
  Conduit Surcharge Summary
  *************************
  
  ----------------------------------------------------------------------------
                                                           Hours        Hours 
                         --------- Hours Full --------   Above Full   Capacity
  Conduit                Both Ends  Upstream  Dnstream   Normal Flow   Limited
  ----------------------------------------------------------------------------
  WS02006229WS02006228        5.28      5.39      5.28      5.95         5.28
  WS02006256WS02006235        6.19      6.19      6.88      4.63         0.01
  WS02006253WS02006251        2.89      2.89      2.98      0.01         0.01
  WS02006252WS02006251        2.52      2.52      3.24      2.95         0.01
  WS02006251WS02006249        2.91      2.92      3.00      2.30         2.14
  WS02006249WS02006248        2.90      2.90      3.00      4.38         0.01
  WS02006248WS02006247        2.98      2.98      3.55      0.01         0.01
  WS02006247WS02006245        3.51      3.62      3.51      4.69         3.46
  WS02006245WS02006243        3.59      3.60      3.81      1.22         1.28
  WS02006243WS02006242        3.87      3.87      4.31      0.01         0.01
  WS02006242WS02006240        4.14      4.14      4.44      2.92         0.01
  WS02006240WS02006239        4.16      4.18      4.27      2.35         1.88
  WS02006239WS02006238        4.46      4.51      4.59      2.40         2.05
  WS02006238WS02006235        4.54      4.54      4.79      0.01         0.02
  WS02006235WS02006234        3.74      3.74      4.48      6.10         0.01
  WS02006234WS02006232        4.37      4.37      5.05      1.27         1.25
  WS02006232WS02006231        2.58      2.58      5.05      1.44         0.01
  WS02006231WS02006230        1.61      1.61      2.77      6.19         0.01
  WS02006230WS02006229        5.85      5.93      5.85      6.27         5.85
  WS02006228WS02006109        5.33      5.72      5.33      6.04         5.33
  WS02006116WS02004401        0.26      0.26      0.26      0.23         0.23
[...]
  YS02001765YS02001762        5.84      5.84      5.87      0.01         0.01
  YS02001770YS02001767        5.81      5.81      5.81      0.18         0.74
  YS02001774YS02001770        5.80      5.80      5.86      0.01         0.01
  YS02001779YS02001774        5.67      5.67      5.86      0.01         0.01
  YS02001649YS02001757        5.88      5.88      5.97      0.01         0.01
  YS02001767YS02001765        5.81      5.81      5.84      0.01         0.01
  YS02006561YS02001783        0.74      0.74      1.18      0.01         0.01
  YS02001783YS02001784        1.15      1.18      1.15      1.31         1.08
  YS02001784YS02001785        1.10      1.15      1.10      2.40         1.10
  YS02001788YS02001790        1.05      1.05      1.76      0.01         0.01
  YS02001790YS02001791        1.75      1.76      1.86      0.92         0.89
  YS02001791YS02001793        1.86      1.86      2.22      0.01         0.01
  YS02001910YS02001907        1.10      1.10      1.78      0.01         0.01
  YS02001786YS02001788        1.05      1.10      1.05      1.98         1.05
  YS02001915YS02001910        0.91      0.91      1.10      0.01         0.01
  YS02001918YS02001915        0.69      0.69      0.91      0.01         0.01
  YS02001923YS02001920        0.53      0.53      0.73      0.01         0.01
  YS02001920YS02001918        0.69      0.69      0.73      0.01         0.01
  YS02001629YS02163301        5.80      5.80      5.81      0.01         0.01
  YS02001619YS02001622        5.47      5.47      5.50      0.01         0.01
  YS02001622YS02001625        5.50      5.50      5.76      0.01         0.01
  YS02001625YS02001629        5.48      5.48      5.76      0.01         0.01
  YS02163301YS02001633        5.81      5.81      5.84      0.01         0.01
  YS02163601YS02164001        5.83      5.83      5.87      0.01         0.01
  YS02164001YS02001641        5.83      5.83      5.85      0.01         0.03
  YS02001641YS02001644        5.85      5.85      5.85      1.53         1.58
  YS02001647YS02001649        5.75      5.75      5.88      0.01         0.01
  YS02006553YS02006556        1.31      1.31      1.86      0.01         0.01
  YS02006556YS02006558        1.55      1.55      1.93      0.01         0.01
  YS02001907YS02006553        2.42      2.42      2.67      0.01         0.01
  YS02006558YS02006561        0.94      1.29      0.94      2.24         0.94
  YS02001633YS02163601        5.83      5.83      5.87      0.01         0.01
  YS02001644YS02001647        5.75      5.75      5.85      0.01         0.01
  YS02001745YS02001748        0.01      0.01      5.28      0.01         0.01
  YS02001748YS02001751        5.35      5.35      5.49      0.01         0.01
  YS02001751YS02001754        5.49      5.49      5.69      0.01         0.01
  YS02001754YS02001757        5.74      5.74      5.97      0.01         0.01
  YS02001882YS02001884        0.93      0.93      0.96      0.01         0.01
  YS02001884YS02001887        1.00      1.00      1.03      0.01         0.01
  YS02001890YS02001895        0.90      0.90      1.13      0.01         0.01
  YS02001895YS02001898        0.89      0.89      0.90      0.01         0.01
  YS02001898YS02001901        0.91      0.91      0.99      0.01         0.01
  YS02001901YS02001904        0.97      0.97      0.99      0.01         0.01
  YS02001904YS02001907        0.97      0.97      1.89      0.01         0.01
  YS02001887YS02001890        1.06      1.06      1.08      0.01         0.01
  YS02001652YS02001649        5.76      5.76      5.88      0.01         0.01
  YS02001655YS02001652        5.50      5.50      5.73      0.01         0.01
  YS02001658YS02001655        5.33      5.33      5.50      0.01         0.01
  YS02001661YS02001658        0.19      0.19      5.33      0.01         0.01
  YS02001664YS02001661        0.01      0.01      0.87      0.01         0.01
  HS02004881HS02006253        0.01      0.01      1.34      0.01         0.01
  YS02001793JiankangQianchi        2.13      2.13      3.71      0.01         0.01
  YS02001757CaochengTiaoxuchi        5.21      5.21      5.97      0.01         0.01
  
  
  ***************
  Pumping Summary
  ***************
  
  ---------------------------------------------------------------------------------------------------------
                                                  Min       Avg       Max     Total     Power    % Time Off
                        Percent   Number of      Flow      Flow      Flow    Volume     Usage    Pump Curve
  Pump                 Utilized   Start-Ups       LPS       LPS       LPS  10^6 ltr     Kw-hr    Low   High
  ---------------------------------------------------------------------------------------------------------
  CC-Pump-1               63.82           2      0.00    176.07    200.00     3.180      3.89    0.0    0.0
  CC-Pump-2               51.05           5      0.00    120.55    200.00     2.100      3.04    0.0    0.0
  JK-Pump-1               63.85           5      0.00    226.86    300.00     3.974     61.65    0.0    0.0
  JK-Pump-2               55.33           4      0.00    413.67    683.00     6.475     95.32    0.0   96.7
  XR-Pump-1               97.87           2      0.00     93.23     95.00     2.508     23.97    0.0    0.0
  XR-Pump-2               97.87           2      0.00     93.23     95.00     2.508     23.97    0.0    0.0
  XR-Pump-3               95.75           3      0.00     93.24     95.00     2.451     22.68    0.0    0.0
  XR-Pump-4               95.75           3      0.00     93.24     95.00     2.451     22.68    0.0    0.0
  
  
  ***************************
  Link Pollutant Load Summary
  ***************************
  
  ------------------------------------------------------------------------------------------
                                 COD            SS            TN            TP         NH4-N
  Link                            kg            kg            kg            kg            kg
  ------------------------------------------------------------------------------------------
  WS02003066WSF200           875.702      1604.470        22.924         1.985        12.044
  WS02006287WS02006284       268.046       498.179         9.347         0.943         5.214
  WS02006284WS02006280       268.528       498.954         9.394         0.949         5.244
  WS02006280WS02006229       268.492       498.884         9.392         0.949         5.242
  WS02006229WS02006228       878.162      1608.687        22.515         1.920        11.762
  WS02006256WS02006235       192.333       352.700         4.268         0.333         2.162
  WS02006253WS02006251        51.304        98.619         1.204         0.094         0.607
  WS02006252WS02006251       417.709       751.292         8.754         0.624         4.293
  WS02006251WS02006249       461.035       835.832         9.787         0.705         4.815
  WS02006249WS02006248       430.486       780.192         9.147         0.660         4.502
  WS02006248WS02006247       429.927       779.263         9.135         0.659         4.496
  WS02006247WS02006245       429.157       777.913         9.118         0.657         4.487
  WS02006245WS02006243       428.411       776.703         9.098         0.656         4.477
  WS02006243WS02006242       427.346       774.841         9.077         0.655         4.467
  WS02006242WS02006240       426.481       773.362         9.060         0.653         4.459
  WS02006240WS02006239       426.397       773.276         9.064         0.654         4.462
  WS02006239WS02006238       426.994       774.212         9.101         0.659         4.485
  WS02006238WS02006235       427.275       774.537         9.120         0.661         4.496
  WS02006235WS02006234       614.782      1118.747        13.243         0.981         6.579
  WS02006234WS02006232       613.917      1117.221        13.229         0.980         6.574
  WS02006232WS02006231       612.931      1115.487        13.207         0.979         6.563
  WS02006231WS02006230       612.050      1113.919        13.190         0.977         6.554
  WS02006230WS02006229       610.726      1111.642        13.155         0.975         6.536
  WS02006228WS02006109       876.830      1606.369        22.482         1.918        11.745
  WS02006116WS02004401       885.572      1621.734        23.198         2.009        12.189
  WS02006115WS02006116       887.028      1624.252        23.245         2.013        12.215
  WS02006113WS02006111       881.532      1613.351        23.190         2.010        12.197
  WS02006112WS02006115       888.568      1626.926        23.297         2.018        12.243
  WS02006111WS02006112       880.793      1612.054        23.170         2.009        12.187
  WS02006110WS02006113       882.393      1614.856        23.217         2.013        12.212
  WS02006109WS02006110       883.875      1617.437        23.265         2.017        12.238
  WS02004411WS02004412       878.433      1609.218        23.024         1.995        12.100
  WS02004401WS02004402       884.261      1619.463        23.152         2.004        12.163
  WS02004413WS02003067       876.208      1605.364        22.939         1.986        12.052
  WS02004412WS02004413       877.446      1607.508        22.990         1.992        12.081
  WS02004410WS02004411       879.222      1610.583        23.052         1.998        12.116
  WS02004409WS02004410       880.028      1611.977        23.082         2.001        12.133
  WS02004407WS02004409       880.678      1613.097        23.104         2.003        12.145
  WS02004406WS02004407       880.855      1613.402        23.109         2.003        12.147
  WS02004405WS02004406       882.045      1615.453        23.160         2.009        12.177
  WS02004404WS02004405       882.742      1616.685        23.166         2.008        12.178
  WS02004403WS02004404       882.209      1615.913        23.079         1.997        12.122
  WS02004402WS02004403       883.152      1617.549        23.113         2.000        12.142
  WS02004139WS02001211      1398.828      2304.628       116.314        14.244        71.829
  WS02004138WS02004139      1405.412      2315.498       116.846        14.309        72.157
  WS02003067WS02003066       875.854      1604.740        22.929         1.985        12.047
  WS02001213WS02003059      1431.387      2355.993       119.657        14.665        73.928
  WS02001212WS02001213      1440.879      2371.572       120.453        14.763        74.421
  WS02001211WS02001212      1442.996      2375.016       120.638        14.786        74.535
  WS02003072WS02003073      2407.341      4119.961       152.525        17.898        92.201
  WS02003069WS02003072      2412.450      4128.343       152.937        17.948        92.456
  WS02003060WS02003069      2415.011      4132.692       153.091        17.966        92.548
  WS02003059WS02003060      1428.194      2350.664       119.416        14.636        73.781
  HS02004901HS02004770        10.270        19.477         0.195         0.015         0.091
  HS02004876HS02004881        37.317        72.577         0.843         0.062         0.416
  HS02004870HS02004876        28.160        54.627         0.678         0.051         0.338
  HS02004842HS02004848         5.466        10.276         0.115         0.008         0.053
  HS02004837HS02004842        10.072        17.582         0.584         0.067         0.347
  HS02004830HS02004837        65.639       112.704         4.557         0.546         2.785
  HS02004824HS02004830        66.390       113.906         4.628         0.555         2.830
  HS02004817HS02004824        88.206       156.974         5.083         0.584         3.051
  HS02004770HS02004777        39.295        75.464         0.819         0.055         0.377
  HS02004799HS02004480       131.406       245.362         3.680         0.335         1.932
  HS02004792HS02004799       119.083       220.656         3.497         0.327         1.853
  HS02004788HS02004792        68.394       126.853         2.388         0.235         1.309
  HS02004785HS02004788        40.732        77.758         0.969         0.074         0.471
  HS02004777HS02004785        40.058        76.664         0.909         0.067         0.434
  HS02004480HS02004478       165.946       312.582         4.244         0.375         2.196
  HS02004479HS02004480        38.146        72.975         0.884         0.079         0.462
  HS02004862HS02004870        21.016        40.116         0.536         0.043         0.270
  HS02004848HS02004852         8.057        15.279         0.167         0.011         0.077
  HS02004856HS02004862        14.072        27.340         0.284         0.019         0.133
  HS02004852HS02004856         8.064        15.290         0.167         0.011         0.077
  HS02004802HS02004478       102.886       186.885         5.163         0.576         3.055
  HS02004478WS02006287       268.246       498.517         9.364         0.945         5.225
  HS02004817HS02004807        86.888       154.860         4.957         0.568         2.973
  HS02004807HS02004802       103.113       187.240         5.195         0.580         3.075
  YS02001759YS02001757       326.986       593.834         6.576         0.455         3.215
  YS02001762YS02001759       154.403       281.028         3.313         0.233         1.643
  YS02001765YS02001762       154.706       282.071         3.340         0.236         1.658
  YS02001770YS02001767       154.413       282.925         3.149         0.207         1.531
  YS02001774YS02001770       187.232       359.460         3.631         0.239         1.755
  YS02001779YS02001774       186.149       357.225         3.720         0.254         1.818
  YS02001649YS02001757       327.361       580.316         6.581         0.457         3.149
  YS02001767YS02001765       155.422       283.780         3.371         0.239         1.676
  YS02006561YS02001783       939.866      1723.964        19.902         1.493         9.931
  YS02001783YS02001784       939.754      1723.786        19.898         1.493         9.929
  YS02001784YS02001785       947.048      1735.455        20.610         1.582        10.375
  YS02001788YS02001790       947.611      1736.349        20.683         1.591        10.421
  YS02001790YS02001791       948.642      1738.000        20.790         1.605        10.488
  YS02001791YS02001793       948.632      1737.982        20.787         1.604        10.486
  YS02001910YS02001907       330.070       599.102         8.232         0.642         4.253
  YS02001786YS02001788       947.225      1735.737        20.638         1.586        10.393
  YS02001915YS02001910       330.162       599.251         8.188         0.636         4.224
  YS02001918YS02001915       157.580       273.511         4.610         0.430         2.512
  YS02001923YS02001920       136.692       239.851         2.626         0.183         1.274
  YS02001926YS02001923       136.393       239.397         2.586         0.178         1.248
  YS02001929YS02001926       136.171       239.029         2.555         0.174         1.228
  YS02001920YS02001918       156.780       271.982         4.565         0.425         2.486
  YS02001629YS02163301       103.484       183.352         2.170         0.140         1.012
  YS02001619YS02001622       146.391       262.922         3.031         0.197         1.414
  YS02001622YS02001625       145.239       261.103         3.003         0.195         1.401
  YS02001625YS02001629       104.569       185.147         2.194         0.141         1.023
  YS02163301YS02001633       103.213       182.895         2.163         0.140         1.009
  YS02163601YS02164001       362.014       646.138         7.116         0.502         3.403
  YS02164001YS02001641       361.550       645.354         7.096         0.501         3.393
  YS02001641YS02001644       361.802       645.703         7.096         0.500         3.391
  YS02001647YS02001649       368.203       662.254         7.279         0.506         3.469
  YS02006553YS02006556       661.451      1207.758        14.306         1.100         7.214
  YS02006556YS02006558       661.367      1207.587        14.273         1.095         7.192
  YSB6556YSB1171              21.953        42.197         0.451         0.038         0.229
  YS02001907YS02006553       661.556      1207.982        14.320         1.102         7.223
  YS02006558YS02006561       939.886      1723.998        19.902         1.493         9.931
  YS02001633YS02163601       362.714       647.226         7.096         0.498         3.387
  YS02001644YS02001647       373.210       671.363         7.365         0.512         3.510
  YS02001745YS02001748       208.545       383.985         4.586         0.312         2.272
  YS02001748YS02001751       207.752       382.244         4.707         0.331         2.356
  YS02001751YS02001754       206.790       380.666         4.689         0.330         2.348
  YS02001754YS02001757       207.574       381.850         4.854         0.353         2.455
  YS02001882YS02001884         3.031         5.239         0.061         0.005         0.030
  YS02001884YS02001887         6.926        12.252         0.135         0.010         0.067
  YS02001890YS02001895       389.327       720.385         7.187         0.539         3.507
  YS02001895YS02001898       389.133       720.107         7.180         0.539         3.503
  YS02001898YS02001901       388.907       719.717         7.175         0.538         3.501
  YS02001901YS02001904       388.732       719.458         7.181         0.539         3.505
  YS02001904YS02001907       388.936       719.765         7.234         0.546         3.540
  YS02001887YS02001890       390.151       721.630         7.242         0.546         3.540
  YS02001652YS02001649       155.191       283.517         3.170         0.228         1.486
  YS02001655YS02001652       156.057       284.889         3.193         0.229         1.497
  YS02001658YS02001655       155.894       284.609         3.114         0.218         1.444
  YS02001661YS02001658       160.373       292.538         3.206         0.225         1.486
  YS02001664YS02001661       176.419       319.657         3.556         0.249         1.646
  YSB1154YSB6556              21.532        41.528         0.402         0.032         0.198
  YSB1174YSB1171              14.655        28.291         0.298         0.024         0.150
  YSB1171HS02004479           38.105        72.909         0.888         0.079         0.465
  HS02004881HS02006253        42.197        82.392         0.921         0.067         0.452
  YS02001793JiankangQianchi       949.082      1738.700        20.813         1.607        10.502
  YS02001757CaochengTiaoxuchi       631.696      1123.792        13.387         0.950         6.562
  WSF200WS02003060           875.702      1604.459        22.930         1.986        12.048
  1                         2413.499      4129.352       153.278        17.995        92.679
  CC-Pump-1                  253.509       456.437         5.309         0.379         2.604
  CC-Pump-2                  164.220       294.885         3.446         0.245         1.689
  JK-Pump-1                  240.338       443.522         5.186         0.398         2.607
  JK-Pump-2                  490.026       913.720        10.278         0.778         5.134
  XR-Pump-1                  357.769       589.177        29.813         3.652        18.414
  XR-Pump-2                  357.769       589.177        29.813         3.652        18.414
  XR-Pump-3                  346.865       571.729        28.774         3.522        17.766
  XR-Pump-4                  346.865       571.729        28.774         3.522        17.766
  

  Analysis begun on:  Fri Jul 16 09:55:32 2021
  Analysis ended on:  Fri Jul 16 09:55:35 2021
  Total elapsed time: 00:00:03