
  EPA STORM WATER MANAGEMENT MODEL - VERSION 5.1 (Build 5.3.0.dev0)
  --------------------------------------------------------------

  WARNING 04: minimum elevation drop used for Conduit WS02004404WS02004405
  WARNING 03: negative offset ignored for Link YS02001904YS02001907
  
  *********************************************************
  NOTE: The summary statistics displayed in this report are
  based on results found at every computational time step,  
  not just on results from each reporting time step.
  *********************************************************
  
  ****************
  Analysis Options
  ****************
  Flow Units ............... LPS
  Process Models:
    Rainfall/Runoff ........ YES
    RDII ................... NO
    Snowmelt ............... NO
    Groundwater ............ NO
    Flow Routing ........... YES
    Ponding Allowed ........ NO
    Water Quality .......... YES
  Infiltration Method ...... HORTON
  Flow Routing Method ...... DYNWAVE
  Surcharge Method ......... EXTRAN
  Starting Date ............ 08/28/2015 08:00:00
  Ending Date .............. 08/28/2015 15:50:00
  Antecedent Dry Days ...... 8.0
  Report Time Step ......... 00:01:00
  Wet Time Step ............ 00:01:00
  Dry Time Step ............ 00:01:00
  Routing Time Step ........ 5.00 sec
  Variable Time Step ....... YES
  Maximum Trials ........... 8
  Number of Threads ........ 4
  Head Tolerance ........... 0.001500 m
  
  
  **************************        Volume         Depth
  Runoff Quantity Continuity     hectare-m            mm
  **************************     ---------       -------
  Total Precipitation ......         5.556        12.164
  Evaporation Loss .........         0.000         0.000
  Infiltration Loss ........         1.002         2.194
  Surface Runoff ...........         3.688         8.075
  Final Storage ............         0.866         1.897
  Continuity Error (%) .....        -0.019
  
  
  **************************           COD            SS            TN            TP         NH4-N
  Runoff Quality Continuity             kg            kg            kg            kg            kg
  **************************    ----------    ----------    ----------    ----------    ----------
  Initial Buildup ..........     41378.656     70582.865      1804.177       168.684      1032.807
  Surface Buildup ..........        19.275        34.271         2.335         0.213         1.362
  Wet Deposition ...........         0.000         0.000         0.000         0.000         0.000
  Sweeping Removal .........         0.000         0.000         0.000         0.000         0.000
  Infiltration Loss ........        84.023       157.502         1.599         0.111         0.761
  BMP Removal ..............         0.000         0.000         0.000         0.000         0.000
  Surface Runoff ...........      3122.074      5752.154        60.620         4.098        28.771
  Remaining Buildup ........     38190.779     64705.500      1744.271       164.686      1004.628
  Continuity Error (%) .....         0.003         0.003         0.001         0.001         0.001
  
  
  **************************        Volume        Volume
  Flow Routing Continuity        hectare-m      10^6 ltr
  **************************     ---------     ---------
  Dry Weather Inflow .......         0.616         6.165
  Wet Weather Inflow .......         3.687        36.870
  Groundwater Inflow .......         0.000         0.000
  RDII Inflow ..............         0.000         0.000
  External Inflow ..........         0.102         1.024
  External Outflow .........         1.989        19.889
  Flooding Loss ............         1.967        19.666
  Evaporation Loss .........         0.000         0.000
  Exfiltration Loss ........         0.000         0.000
  Initial Stored Volume ....         0.076         0.761
  Final Stored Volume ......         0.649         6.493
  Continuity Error (%) .....        -2.743
  
  
  **************************           COD            SS            TN            TP         NH4-N
  Quality Routing Continuity            kg            kg            kg            kg            kg
  **************************    ----------    ----------    ----------    ----------    ----------
  Dry Weather Inflow .......      1541.201      2465.922       147.955        18.494        92.472
  Wet Weather Inflow .......      3121.249      5750.745        60.603         4.097        28.763
  Groundwater Inflow .......         0.000         0.000         0.000         0.000         0.000
  RDII Inflow ..............         0.000         0.000         0.000         0.000         0.000
  External Inflow ..........       183.418       293.469        17.608         2.201        11.005
  External Outflow .........      2329.045      3980.252       151.420        17.860        91.759
  Flooding Loss ............      1830.909      3362.484        47.567         4.158        25.049
  Exfiltration Loss ........         0.000         0.000         0.000         0.000         0.000
  Mass Reacted .............         0.000         0.000         0.000         0.000         0.000
  Initial Stored Mass ......         0.000         0.000         0.000         0.000         0.000
  Final Stored Mass ........       528.975       898.070        23.496         2.495        13.586
  Continuity Error (%) .....         3.239         3.165         1.628         1.129         1.396
  
  
  *************************
  Highest Continuity Errors
  *************************
  Node HS02004842 (14.53%)
  Node JK-storage (-12.31%)
  Node YS02001884 (10.14%)
  Node WS02006253 (2.78%)
  Node YSB1171 (2.74%)
  
  
  ***************************
  Time-Step Critical Elements
  ***************************
  Link WS02006252WS02006251 (69.13%)
  Link WS02006280WS02006229 (9.47%)
  Link WS02006238WS02006235 (5.20%)
  Link YS02001793JiankangQianchi (2.96%)
  Link WS02004404WS02004405 (2.25%)
  
  
  ********************************
  Highest Flow Instability Indexes
  ********************************
  Link WS02006113WS02006111 (44)
  Link YS02163601YS02164001 (39)
  Link YS02163301YS02001633 (39)
  Link YS02001629YS02163301 (39)
  Link YS02001619YS02001622 (37)
  
  
  *************************
  Routing Time Step Summary
  *************************
  Minimum Time Step           :     0.30 sec
  Average Time Step           :     1.09 sec
  Maximum Time Step           :     5.00 sec
  Percent in Steady State     :    -0.00
  Average Iterations per Step :     4.43
  Percent Not Converging      :    20.89
  
  
  ***************************
  Subcatchment Runoff Summary
  ***************************
  
  ------------------------------------------------------------------------------------------------------------------------------
                            Total      Total      Total      Total     Imperv       Perv      Total       Total     Peak  Runoff
                           Precip      Runon       Evap      Infil     Runoff     Runoff     Runoff      Runoff   Runoff   Coeff
  Subcatchment                 mm         mm         mm         mm         mm         mm         mm    10^6 ltr      LPS
  ------------------------------------------------------------------------------------------------------------------------------
  sub0                      12.16       0.00       0.00       0.65      11.27       0.20      11.47        0.01     1.99   0.943
  sub1                      12.16       0.00       0.00       1.12      10.73       0.22      10.95        0.07    14.96   0.900
  sub2                      12.16       0.00       0.00       4.23       7.58       0.27       7.85        0.07    15.08   0.646
  sub3                      12.16       0.00       0.00       4.29       7.54       0.21       7.75        0.17    34.61   0.637
  sub4                      12.16       0.00       0.00       1.19      10.57       0.14      10.71        0.22    42.34   0.881
  sub5                      12.16       0.00       0.00       0.69      11.21       0.16      11.38        0.13    26.18   0.935
  sub7                      12.16       0.00       0.00       0.88      11.01       0.22      11.22        0.04     7.95   0.923
  sub8                      12.16       0.00       0.00       0.89      11.00       0.21      11.20        0.07    14.89   0.921
  sub9                      12.16       0.00       0.00       0.89      10.99       0.21      11.20        0.05    11.18   0.921
  sub10                     12.16       0.00       0.00       0.79      11.10       0.18      11.28        0.12    25.49   0.928
  sub11                     12.16       0.00       0.00       0.78      11.12       0.19      11.31        0.13    27.35   0.930
  sub12                     12.16       0.00       0.00       1.27      10.53       0.31      10.85        0.09    20.52   0.892
  sub14                     12.16       0.00       0.00       0.89      10.99       0.20      11.20        0.11    22.08   0.920
  sub15                     12.16       0.00       0.00       3.28       8.45       0.37       8.82        0.15    32.49   0.725
  sub16                     12.16       0.00       0.00       3.51       8.11       0.50       8.61        0.09    20.36   0.708
  sub17                     12.16       0.00       0.00       3.41       8.23       0.48       8.71        0.07    16.72   0.716
  sub22                     12.16       0.00       0.00       4.80       6.89       0.43       7.32        0.46   102.62   0.602
  sub23                     12.16       0.00       0.00       4.05       7.62       0.45       8.07        0.38    85.35   0.663
  sub60                     12.16       0.00       0.00       1.42       8.82       0.04       8.86        2.69   336.84   0.729
  sub61                     12.16       0.00       0.00       2.01       8.94       0.06       9.00        2.78   399.45   0.740
  sub62                     12.16       0.00       0.00       0.92       9.73       0.05       9.78        3.01   415.79   0.804
  sub63                     12.16       0.00       0.00       3.46       7.82       0.06       7.88        2.39   361.21   0.648
  sub64                     12.16       0.00       0.00       1.78       8.47       0.04       8.51        2.59   320.97   0.699
  sub65                     12.16       0.00       0.00       1.54       8.61       0.04       8.65        2.66   326.54   0.711
  sub66                     12.16       0.00       0.00       3.49       7.26       0.04       7.30        2.24   290.53   0.600
  sub67                     12.16       0.00       0.00       0.91      10.24       0.07      10.31        3.18   494.23   0.848
  sub68                     12.16       0.00       0.00       1.64       9.40       0.06       9.46        2.91   432.52   0.778
  sub69                     12.16       0.00       0.00       1.73       9.72       0.09       9.82        2.29   383.95   0.807
  sub70                     12.16      10.02       0.00       6.98      13.09       0.56      13.65        3.12   394.93   0.615
  sub71                     12.16       0.00       0.00       0.93       9.48       0.05       9.53        2.25   296.34   0.783
  sub72                     12.16       0.00       0.00       0.83       7.62       0.02       7.64        1.56   151.13   0.628
  1                         12.16      13.29       0.00       1.37      14.64       3.94      18.57        4.36   399.24   0.730
  2                         12.16       0.00       0.00       3.02       2.89       1.65       4.55        1.82   245.52   0.374
  
  
  ****************************
  Subcatchment Washoff Summary
  ****************************
  
  ------------------------------------------------------------------------------------------
                                 COD            SS            TN            TP         NH4-N
  Subcatchment                    kg            kg            kg            kg            kg
  ------------------------------------------------------------------------------------------
  sub0                         2.176         4.147         0.037         0.003         0.018
  sub1                         9.268        18.138         0.173         0.012         0.083
  sub2                         5.563        10.570         0.119         0.008         0.054
  sub3                        13.747        25.918         0.288         0.019         0.132
  sub4                        21.530        42.606         0.429         0.026         0.205
  sub5                        21.300        41.103         0.378         0.029         0.183
  sub7                         4.748         9.424         0.090         0.006         0.043
  sub8                         7.142        14.500         0.143         0.008         0.069
  sub9                         6.100        12.212         0.118         0.007         0.057
  sub10                       17.532        34.266         0.321         0.023         0.155
  sub11                       17.086        33.770         0.320         0.022         0.154
  sub12                       14.392        27.890         0.260         0.019         0.125
  sub14                       13.021        25.823         0.247         0.016         0.119
  sub15                       16.182        30.744         0.313         0.023         0.146
  sub16                       10.318        19.555         0.197         0.015         0.092
  sub17                        9.471        17.789         0.175         0.014         0.082
  sub22                       48.821        90.813         0.932         0.070         0.434
  sub23                       29.138        56.181         0.627         0.041         0.287
  sub60                      203.703       376.194         4.083         0.248         1.956
  sub61                      251.300       461.579         4.699         0.320         2.261
  sub62                      262.762       491.326         5.157         0.324         2.474
  sub63                      185.047       334.594         3.739         0.261         1.731
  sub64                      253.867       452.095         4.687         0.339         2.235
  sub65                      260.106       465.192         4.834         0.344         2.309
  sub66                      146.558       263.078         3.037         0.197         1.417
  sub67                      388.205       718.566         6.963         0.510         3.363
  sub68                      276.714       513.393         5.318         0.356         2.539
  sub69                      247.676       464.012         4.658         0.325         2.225
  sub70                      413.256       778.342         8.287         0.572         3.877
  sub71                      173.740       327.842         3.597         0.206         1.720
  sub72                      136.329       239.316         2.558         0.174         1.230
  1                          280.724       531.718         5.751         0.398         2.660
  2                           35.485        61.812         1.030         0.062         0.437
  ------------------------------------------------------------------------------------------
  System                    3783.006      6994.507        73.566         4.996        34.873
  
  
  ******************
  Node Depth Summary
  ******************
  
  ---------------------------------------------------------------------------------
                                 Average  Maximum  Maximum  Time of Max    Reported
                                   Depth    Depth      HGL   Occurrence   Max Depth
  Node                 Type       Meters   Meters   Meters  days hr:min      Meters
  ---------------------------------------------------------------------------------
  WS02001211           JUNCTION     0.77     0.83     5.67     0  03:08        0.83
  WS02001212           JUNCTION     0.48     0.56     5.62     0  03:07        0.56
  WS02001213           JUNCTION     0.72     0.83     5.59     0  03:07        0.83
  WS02003069           JUNCTION     0.52     0.68     5.27     0  03:06        0.68
  WS02003072           JUNCTION     0.58     0.73     5.10     0  03:07        0.73
  WS02003073           JUNCTION     0.36     0.46     4.52     0  03:07        0.46
  WS02003060           JUNCTION     0.46     0.60     5.53     0  03:06        0.60
  WS02003066           JUNCTION     0.25     0.36     5.92     0  03:04        0.36
  WS02003059           JUNCTION     0.77     0.88     5.57     0  03:06        0.88
  WS02003067           JUNCTION     0.62     0.79     6.11     0  03:04        0.79
  WS02004401           JUNCTION     0.73     1.14     7.14     0  03:01        1.13
  WS02004402           JUNCTION     0.76     1.14     7.10     0  03:03        1.13
  WS02004403           JUNCTION     0.78     1.12     7.05     0  03:03        1.12
  WS02004404           JUNCTION     0.85     1.18     7.03     0  03:01        1.17
  WS02004406           JUNCTION     0.85     1.12     6.95     0  03:02        1.11
  WS02004409           JUNCTION     0.55     0.87     6.64     0  03:04        0.87
  WS02004410           JUNCTION     0.57     0.87     6.59     0  03:04        0.87
  WS02004411           JUNCTION     0.58     0.86     6.54     0  03:04        0.86
  WS02004412           JUNCTION     0.59     0.85     6.49     0  03:04        0.85
  WS02004413           JUNCTION     0.75     0.98     6.45     0  03:04        0.98
  WS02004405           JUNCTION     0.85     1.16     7.01     0  03:02        1.15
  WS02006109           JUNCTION     0.82     1.31     7.93     0  03:02        1.30
  WS02006110           JUNCTION     0.80     1.15     7.73     0  03:02        1.14
  WS02006111           JUNCTION     0.24     0.65     7.36     0  03:03        0.65
  WS02006112           JUNCTION     0.91     1.42     7.30     0  03:03        1.41
  WS02006113           JUNCTION     0.37     0.65     7.54     0  03:02        0.65
  WS02006115           JUNCTION     0.62     1.09     7.23     0  03:02        1.09
  WS02006116           JUNCTION     0.71     1.14     7.18     0  03:03        1.14
  WS02006230           JUNCTION     0.82     1.52     8.26     0  03:01        1.51
  WS02006231           JUNCTION     0.57     1.22     8.34     0  03:02        1.21
  WS02006232           JUNCTION     0.71     1.36     8.40     0  03:02        1.36
  WS02006234           JUNCTION     0.65     1.32     8.48     0  03:02        1.31
  WS02006235           JUNCTION     0.69     1.37     8.54     0  03:02        1.35
  WS02006238           JUNCTION     0.71     1.39     8.53     0  03:02        1.38
  WS02006240           JUNCTION     0.62     1.28     8.57     0  03:00        1.28
  WS02006242           JUNCTION     0.67     1.33     8.60     0  03:02        1.33
  WS02006243           JUNCTION     0.56     1.21     8.63     0  03:02        1.20
  WS02006245           JUNCTION     0.53     1.17     8.65     0  03:01        1.16
  WS02006247           JUNCTION     0.54     1.17     8.67     0  03:02        1.16
  WS02006248           JUNCTION     0.48     1.09     8.68     0  03:02        1.09
  WS02006249           JUNCTION     0.50     1.09     8.69     0  02:56        1.09
  WS02006239           JUNCTION     0.67     1.35     8.56     0  03:02        1.34
  WS02006251           JUNCTION     0.48     1.38     9.05     0  02:56        1.17
  WS02006252           JUNCTION     0.32     0.87     9.11     0  02:56        0.72
  WS02006253           JUNCTION     0.51     1.80     9.44     0  02:55        1.20
  WS02006256           JUNCTION     1.67     2.35     9.28     0  00:00        2.35
  WS02004138           JUNCTION     0.19     0.20     7.45     0  00:00        0.19
  WS02004139           JUNCTION     0.72     0.77     5.68     0  03:08        0.77
  WS02004407           JUNCTION     0.24     0.37     6.68     0  03:03        0.37
  WS02006228           JUNCTION     0.83     1.44     8.09     0  03:02        1.43
  WS02006229           JUNCTION     0.81     1.49     8.18     0  03:02        1.48
  WS02006280           JUNCTION     0.07     0.20     8.47     0  03:02        0.20
  WS02006284           JUNCTION     0.37     0.56     8.96     0  03:02        0.56
  WS02006287           JUNCTION     0.10     0.30     9.25     0  03:01        0.30
  WSF200               JUNCTION     0.24     0.40     5.64     0  03:05        0.40
  HS02004901           JUNCTION     0.12     0.29    10.12     0  03:01        0.29
  HS02004881           JUNCTION     0.01     0.04     9.07     0  02:56        0.04
  HS02004876           JUNCTION     0.04     0.12     9.15     0  03:01        0.12
  HS02004870           JUNCTION     0.01     0.07     9.35     0  03:01        0.07
  HS02004862           JUNCTION     0.02     0.08     9.46     0  03:01        0.08
  HS02004856           JUNCTION     0.08     0.13     9.55     0  03:01        0.13
  HS02004852           JUNCTION     0.01     0.05     9.56     0  03:01        0.05
  HS02004848           JUNCTION     0.01     0.05     9.65     0  03:01        0.05
  HS02004842           JUNCTION     0.33     0.38     9.65     0  03:01        0.38
  HS02004837           JUNCTION     0.03     0.07     9.65     0  03:01        0.07
  HS02004830           JUNCTION     0.04     0.08     9.55     0  03:01        0.08
  HS02004824           JUNCTION     0.02     0.06     9.47     0  03:01        0.06
  HS02004817           JUNCTION     0.44     0.61     9.45     0  03:01        0.61
  HS02004807           JUNCTION     0.12     0.28     9.45     0  03:01        0.28
  HS02004802           JUNCTION     0.16     0.31     9.44     0  03:01        0.31
  HS02004799           JUNCTION     0.12     0.35     9.56     0  03:01        0.35
  HS02004792           JUNCTION     0.03     0.15     9.67     0  03:01        0.15
  HS02004788           JUNCTION     0.02     0.11    10.01     0  03:01        0.11
  HS02004785           JUNCTION     0.04     0.18    10.09     0  03:01        0.18
  HS02004777           JUNCTION     0.15     0.31    10.11     0  03:01        0.31
  HS02004770           JUNCTION     0.12     0.29    10.12     0  03:01        0.29
  HS02004480           JUNCTION     0.08     0.28     9.52     0  03:01        0.28
  HS02004479           JUNCTION     0.11     0.32     9.52     0  03:01        0.32
  HS02004478           JUNCTION     0.06     0.20     9.42     0  03:01        0.20
  YS02001745           JUNCTION     0.75     0.91     8.43     0  03:18        0.91
  YS02001748           JUNCTION     1.15     1.36     8.44     0  03:14        1.35
  YS02001751           JUNCTION     1.33     1.56     8.44     0  03:14        1.55
  YS02001754           JUNCTION     1.59     1.83     8.44     0  03:14        1.82
  YS02001762           JUNCTION     1.79     2.04     8.44     0  03:14        2.03
  YS02001765           JUNCTION     1.74     1.99     8.44     0  03:14        1.98
  YS02001767           JUNCTION     1.70     1.94     8.43     0  02:53        1.93
  YS02001770           JUNCTION     1.70     1.92     8.42     0  03:14        1.91
  YS02001774           JUNCTION     1.77     1.98     8.40     0  03:08        1.97
  YS02001779           JUNCTION     1.51     1.68     8.37     0  02:36        1.68
  YS02001882           JUNCTION     0.52     1.62     8.34     0  03:00        1.61
  YS02001884           JUNCTION     0.62     1.72     8.34     0  03:00        1.71
  YS02001759           JUNCTION     1.82     2.08     8.44     0  03:14        2.07
  YS02001887           JUNCTION     0.70     1.80     8.34     0  03:00        1.79
  YS02001890           JUNCTION     0.73     1.81     8.32     0  02:55        1.81
  YS02001898           JUNCTION     0.49     1.56     8.29     0  03:00        1.55
  YS02001901           JUNCTION     0.61     1.67     8.28     0  02:46        1.67
  YS02001904           JUNCTION     0.59     1.64     8.27     0  02:59        1.63
  YS02001907           JUNCTION     0.92     1.96     8.25     0  02:46        1.96
  YS02001910           JUNCTION     0.71     1.77     8.28     0  02:47        1.76
  YS02001915           JUNCTION     0.51     1.58     8.30     0  02:47        1.56
  YS02001918           JUNCTION     0.26     1.24     8.31     0  02:47        1.23
  YS02001619           JUNCTION     1.29     1.48     8.40     0  02:59        1.47
  YS02001629           JUNCTION     1.65     1.85     8.39     0  02:50        1.84
  YS02001641           JUNCTION     1.75     1.94     8.37     0  02:57        1.93
  YS02001644           JUNCTION     1.75     1.92     8.35     0  02:35        1.92
  YS02001652           JUNCTION     1.60     2.15     8.75     0  02:46        1.89
  YS02001655           JUNCTION     1.36     2.08     8.93     0  03:46        1.69
  YS02001920           JUNCTION     0.36     1.31     8.32     0  02:47        1.30
  YS02001923           JUNCTION     0.20     1.06     8.32     0  02:47        1.05
  YS02001926           JUNCTION     0.27     0.88     8.32     0  02:47        0.86
  YS02001929           JUNCTION     0.15     0.64     8.33     0  02:47        0.62
  YS02001658           JUNCTION     1.09     2.14     9.28     0  02:46        1.43
  YS02001661           JUNCTION     0.85     2.22     9.62     0  02:46        1.16
  YS02001664           JUNCTION     0.38     0.57     8.49     0  03:55        0.56
  YS02001622           JUNCTION     1.32     1.50     8.40     0  02:59        1.49
  YS02001633           JUNCTION     1.74     1.95     8.40     0  03:08        1.93
  YS02001649           JUNCTION     1.80     2.05     8.44     0  02:39        2.05
  YS02001757           JUNCTION     1.92     2.18     8.44     0  03:27        2.17
  YS02001895           JUNCTION     0.49     1.56     8.31     0  03:00        1.56
  YS02001625           JUNCTION     1.60     1.78     8.38     0  02:34        1.78
  YS02163301           JUNCTION     1.68     1.88     8.40     0  03:04        1.88
  YS02163601           JUNCTION     1.79     1.99     8.39     0  02:35        1.98
  YS02164001           JUNCTION     1.73     1.92     8.38     0  02:35        1.91
  YS02001647           JUNCTION     1.58     1.80     8.41     0  02:46        1.79
  YSB1154              JUNCTION     0.26     0.47     9.52     0  03:01        0.47
  YSB6556              JUNCTION     0.15     0.35     9.52     0  03:01        0.35
  YSB1174              JUNCTION     0.21     0.41     9.52     0  03:01        0.41
  YSB1171              JUNCTION     0.41     0.62     9.52     0  03:01        0.62
  YS02006553           JUNCTION     0.92     1.97     8.25     0  02:54        1.96
  YS02006561           JUNCTION     0.29     1.07     7.73     0  03:00        1.06
  YS02006556           JUNCTION     0.89     1.92     8.23     0  03:00        1.92
  YS02006558           JUNCTION     0.93     1.96     8.23     0  03:00        1.96
  YS02001783           JUNCTION     0.49     1.71     7.85     0  02:23        1.44
  YS02001784           JUNCTION     0.51     1.56     7.63     0  02:23        1.38
  YS02001786           JUNCTION     0.45     1.29     7.32     0  02:23        1.22
  YS02001788           JUNCTION     0.38     1.11     7.08     0  02:23        1.08
  YS02001790           JUNCTION     0.48     1.96     7.60     0  04:31        1.24
  YS02001791           JUNCTION     0.43     2.31     7.78     0  04:30        1.23
  YS02001793           JUNCTION     0.57     2.71     7.54     0  04:28        1.80
  WSC                  OUTFALL      0.36     0.46     1.13     0  03:08        0.46
  JK-storage           STORAGE      2.59     5.80     6.60     0  02:22        5.80
  CC-storage           STORAGE      1.18     1.42     8.42     0  03:16        1.42
  XR-storage           STORAGE      6.69     7.72     5.72     0  02:55        7.72
  
  
  *******************
  Node Inflow Summary
  *******************
  
  -------------------------------------------------------------------------------------------------
                                  Maximum  Maximum                  Lateral       Total        Flow
                                  Lateral    Total  Time of Max      Inflow      Inflow     Balance
                                   Inflow   Inflow   Occurrence      Volume      Volume       Error
  Node                 Type           LPS      LPS  days hr:min    10^6 ltr    10^6 ltr     Percent
  -------------------------------------------------------------------------------------------------
  WS02001211           JUNCTION      7.35   391.19     0  03:15       0.207        10.1       0.404
  WS02001212           JUNCTION      0.00   394.77     0  03:15           0          10       0.248
  WS02001213           JUNCTION      0.00   398.31     0  03:16           0          10       0.290
  WS02003069           JUNCTION      0.32  1226.88     0  03:06     0.00902          20       0.189
  WS02003072           JUNCTION      0.00  1226.79     0  03:07           0        19.9       0.222
  WS02003073           JUNCTION      1.82  1228.68     0  03:07      0.0514        19.9       0.256
  WS02003060           JUNCTION     16.53  1226.47     0  03:06       0.466          20       0.178
  WS02003066           JUNCTION      0.00   829.96     0  03:05           0        9.59       0.054
  WS02003059           JUNCTION      0.00   402.59     0  03:15           0        9.99       0.411
  WS02003067           JUNCTION      0.00   829.83     0  03:04           0         9.6       0.109
  WS02004401           JUNCTION      0.00   831.20     0  03:03           0        9.87       0.250
  WS02004402           JUNCTION      0.00   831.69     0  03:03           0        9.85       0.232
  WS02004403           JUNCTION      0.00   831.09     0  03:04           0        9.82       0.208
  WS02004404           JUNCTION      0.16   831.60     0  03:03     0.00457        9.81       0.153
  WS02004406           JUNCTION      0.00   830.99     0  03:03           0        9.77       0.374
  WS02004409           JUNCTION      0.00   830.69     0  03:03           0        9.73       0.206
  WS02004410           JUNCTION      0.00   830.22     0  03:03           0        9.71       0.228
  WS02004411           JUNCTION      0.00   829.96     0  03:04           0        9.68       0.230
  WS02004412           JUNCTION      0.00   829.83     0  03:04           0        9.66       0.243
  WS02004413           JUNCTION      0.00   829.80     0  03:04           0        9.64       0.352
  WS02004405           JUNCTION      0.04   832.45     0  03:03     0.00107        9.79       0.228
  WS02006109           JUNCTION      1.23   818.27     0  03:02      0.0347        9.94       0.220
  WS02006110           JUNCTION      0.00   818.41     0  03:02           0        9.91       0.216
  WS02006111           JUNCTION      0.00   817.74     0  03:02           0        9.88       0.056
  WS02006112           JUNCTION     16.72   830.75     0  03:03      0.0747        9.95       0.340
  WS02006113           JUNCTION      0.00   818.16     0  03:02           0        9.89       0.122
  WS02006115           JUNCTION      0.00   831.02     0  03:03           0        9.92       0.252
  WS02006116           JUNCTION      0.00   830.95     0  03:03           0        9.89       0.215
  WS02006230           JUNCTION     10.28   532.53     0  06:10        0.29        7.78       0.222
  WS02006231           JUNCTION      0.00   522.25     0  06:12           0         7.5       0.174
  WS02006232           JUNCTION      0.00   522.54     0  06:10           0        7.52       0.246
  WS02006234           JUNCTION      0.00   523.26     0  06:10           0        7.53       0.150
  WS02006235           JUNCTION      0.00   524.31     0  06:10           0        7.61       0.160
  WS02006238           JUNCTION      0.00   413.92     0  05:30           0        4.38       0.208
  WS02006240           JUNCTION      0.00   412.79     0  05:30           0        4.35       0.385
  WS02006242           JUNCTION      0.00   412.93     0  05:30           0        4.34       0.429
  WS02006243           JUNCTION      0.00   413.02     0  05:30           0        4.34       0.317
  WS02006245           JUNCTION      0.00   413.80     0  05:30           0        4.34       0.324
  WS02006247           JUNCTION      0.00   413.54     0  05:30           0        4.35       0.259
  WS02006248           JUNCTION      0.00   414.71     0  05:30           0        4.36       0.229
  WS02006249           JUNCTION      0.00   486.30     0  03:00           0        4.59       0.330
  WS02006239           JUNCTION      0.00   413.59     0  05:30           0        4.36       0.258
  WS02006251           JUNCTION      0.08   483.97     0  03:00     0.00217        4.66       0.383
  WS02006252           JUNCTION      0.00   400.00     0  04:50           0         4.2       0.014
  WS02006253           JUNCTION      1.99   118.99     0  02:55     0.00928       0.466       2.864
  WS02006256           JUNCTION      0.00   983.00     0  02:40           0        9.82      -0.008
  WS02004138           JUNCTION      0.00   380.00     0  00:00           0        9.92       0.062
  WS02004139           JUNCTION      0.32   395.85     0  00:00     0.00905        9.92       0.462
  WS02004407           JUNCTION      0.00   831.04     0  03:03           0        9.73       0.093
  WS02006228           JUNCTION      0.00   817.34     0  03:02           0        9.92       0.169
  WS02006229           JUNCTION      0.00   817.28     0  03:02           0        9.93       0.151
  WS02006280           JUNCTION      0.00   413.63     0  03:02           0        2.17       0.006
  WS02006284           JUNCTION      0.10   413.57     0  03:02      0.0027        2.17       0.042
  WS02006287           JUNCTION      0.00   413.23     0  03:01           0        2.17       0.033
  WSF200               JUNCTION      0.00   830.02     0  03:05           0        9.59       0.054
  HS02004901           JUNCTION     20.36    20.36     0  03:01      0.0902      0.0904       1.990
  HS02004881           JUNCTION      7.95    84.19     0  03:01      0.0378        0.41       0.090
  HS02004876           JUNCTION     14.96    76.75     0  03:01      0.0728       0.373       0.148
  HS02004870           JUNCTION     14.89    62.15     0  03:01      0.0716         0.3       0.037
  HS02004862           JUNCTION     15.28    47.68     0  03:01      0.0788       0.229       0.076
  HS02004856           JUNCTION     11.18    32.72     0  03:01      0.0539       0.152       0.960
  HS02004852           JUNCTION      0.00    21.94     0  03:01           0      0.0979       0.059
  HS02004848           JUNCTION     34.61    34.61     0  03:01       0.174       0.174       0.028
  HS02004842           JUNCTION      0.00    12.41     0  03:01           0      0.0895      16.998
  HS02004837           JUNCTION     31.84    43.95     0  03:01       0.303        0.38       0.214
  HS02004830           JUNCTION      0.15    43.86     0  03:01     0.00423        0.37       0.335
  HS02004824           JUNCTION     42.39    85.90     0  03:01       0.225       0.594       0.091
  HS02004817           JUNCTION      0.60    86.28     0  03:01      0.0169        0.61       2.809
  HS02004807           JUNCTION     27.35   112.31     0  03:01       0.131       0.726       0.605
  HS02004802           JUNCTION      0.00   111.37     0  03:01           0       0.723       0.548
  HS02004799           JUNCTION     22.08   258.93     0  03:01       0.107        1.24       0.223
  HS02004792           JUNCTION    102.90   237.99     0  03:01        0.47        1.14       0.036
  HS02004788           JUNCTION     34.16   135.92     0  03:01       0.199       0.669       0.059
  HS02004785           JUNCTION      0.15   103.52     0  03:01     0.00423       0.471       0.106
  HS02004777           JUNCTION      0.03   104.16     0  03:01    0.000846       0.472       1.115
  HS02004770           JUNCTION     85.35   105.10     0  03:01       0.385       0.473       0.659
  HS02004480           JUNCTION      0.00   302.45     0  03:01           0        1.46       0.076
  HS02004479           JUNCTION      0.00    44.90     0  03:02           0       0.232       0.317
  HS02004478           JUNCTION      0.00   413.09     0  03:01           0        2.17       0.014
  YS02001745           JUNCTION    336.84   336.84     0  03:01        2.69        2.69       0.380
  YS02001748           JUNCTION      0.04   493.14     0  02:28     0.00127        2.68       0.805
  YS02001751           JUNCTION      0.01   344.50     0  03:01     0.00031        2.66       0.885
  YS02001754           JUNCTION      0.26   344.30     0  03:01     0.00733        2.64       0.941
  YS02001762           JUNCTION      0.00   290.57     0  02:38           0        1.93       1.104
  YS02001765           JUNCTION      0.00   290.02     0  02:38           0        1.94       1.273
  YS02001767           JUNCTION      0.54   290.84     0  02:38      0.0151        1.96       1.854
  YS02001770           JUNCTION    415.94   534.23     0  03:01        3.01        3.41       0.940
  YS02001774           JUNCTION      0.00   534.61     0  03:01           0        1.83       1.391
  YS02001779           JUNCTION      0.01   534.44     0  03:01    0.000141         1.8       0.871
  YS02001882           JUNCTION      0.00    21.94     0  02:27           0      0.0237      10.772
  YS02001884           JUNCTION      0.00    49.71     0  02:25           0      0.0618      11.282
  YS02001759           JUNCTION    399.49   571.17     0  02:39        2.78        4.28       0.535
  YS02001887           JUNCTION    494.68   495.10     0  03:01        3.19        3.23       0.269
  YS02001890           JUNCTION      0.00   495.83     0  03:01           0        3.18       0.294
  YS02001898           JUNCTION      0.00   495.32     0  03:01           0        3.16       0.102
  YS02001901           JUNCTION      0.00   495.83     0  03:01           0        3.16       0.224
  YS02001904           JUNCTION      0.00   495.51     0  03:01           0        3.16       0.203
  YS02001907           JUNCTION      0.00   950.68     0  03:01           0        7.02       0.349
  YS02001910           JUNCTION      0.00   455.44     0  03:00           0        3.87       0.310
  YS02001915           JUNCTION    296.36   455.48     0  03:01        2.25        3.89       0.158
  YS02001918           JUNCTION      0.00   207.12     0  03:31           0        1.64       0.121
  YS02001619           JUNCTION    290.53   290.53     0  03:01        2.24        2.24       0.549
  YS02001629           JUNCTION      0.00   204.61     0  02:17           0        1.69       1.738
  YS02001641           JUNCTION      0.00   398.57     0  02:35           0        4.25       0.502
  YS02001644           JUNCTION    321.01  1310.21     0  03:00        2.59        9.63       0.271
  YS02001652           JUNCTION      0.00   379.89     0  03:01           0        2.35       1.011
  YS02001655           JUNCTION      0.15   378.71     0  03:01     0.00434        2.37       1.026
  YS02001920           JUNCTION      2.87   190.78     0  03:29      0.0809        1.64       0.182
  YS02001923           JUNCTION      0.04   178.99     0  02:48     0.00106        1.55       0.056
  YS02001926           JUNCTION      0.05   158.76     0  03:00     0.00147        1.56       0.208
  YS02001929           JUNCTION    151.13   151.13     0  03:01        1.56        1.56       0.037
  YS02001658           JUNCTION      0.00   619.64     0  02:23           0        2.41       0.899
  YS02001661           JUNCTION      0.00   617.49     0  02:40           0        2.79      -0.315
  YS02001664           JUNCTION    361.21   361.21     0  03:01        2.38        2.77       0.191
  YS02001622           JUNCTION      0.00   291.04     0  03:01           0        2.22       1.449
  YS02001633           JUNCTION    326.74   397.48     0  02:35        2.66        4.31       0.748
  YS02001649           JUNCTION      0.00   825.11     0  02:35           0        5.64       0.662
  YS02001757           JUNCTION      0.00  1576.13     0  02:35           0        9.29       1.002
  YS02001895           JUNCTION      0.00   495.61     0  03:01           0        3.17       0.166
  YS02001625           JUNCTION      0.00   290.76     0  03:01           0        2.19       1.805
  YS02163301           JUNCTION      0.00   202.03     0  02:26           0        1.67       1.468
  YS02163601           JUNCTION      0.11   397.93     0  02:35      0.0031        4.27       0.711
  YS02164001           JUNCTION      0.00   398.18     0  02:35           0        4.25       0.473
  YS02001647           JUNCTION      0.00   651.51     0  03:17           0        4.72       0.604
  YSB1154              JUNCTION     26.18    26.18     0  03:01       0.129        0.13       1.130
  YSB6556              JUNCTION      0.00    25.82     0  03:01           0        0.13       0.969
  YSB1174              JUNCTION     20.52    20.52     0  03:01      0.0948      0.0953       1.368
  YSB1171              JUNCTION      0.00    45.30     0  03:01           0       0.231       2.821
  YS02006553           JUNCTION      0.00   704.18     0  03:31           0        6.59       0.234
  YS02006561           JUNCTION      0.00  1019.54     0  02:46           0        9.47       0.006
  YS02006556           JUNCTION      0.00   704.62     0  03:31           0        6.59       0.176
  YS02006558           JUNCTION    433.40  1019.85     0  02:46        2.93         9.5       0.057
  YS02001783           JUNCTION      0.00  1019.56     0  02:46           0        9.47       0.025
  YS02001784           JUNCTION      1.06  1020.48     0  02:46      0.0299         9.5       0.038
  YS02001786           JUNCTION      0.06  1020.59     0  02:46     0.00159        9.49       0.037
  YS02001788           JUNCTION      0.07  1020.56     0  02:46       0.002        9.49       0.024
  YS02001790           JUNCTION      0.15  1020.82     0  02:46     0.00437        9.49       0.106
  YS02001791           JUNCTION      0.00  1020.92     0  02:46           0        9.48       0.126
  YS02001793           JUNCTION      0.00  1021.20     0  02:46           0        9.48       0.157
  WSC                  OUTFALL       0.00  1228.80     0  03:08           0        19.9       0.000
  JK-storage           STORAGE       0.00  1020.97     0  02:46           0        9.61     -10.959
  CC-storage           STORAGE       0.00  1576.40     0  02:35           0        7.75       0.802
  XR-storage           STORAGE     844.76   844.76     0  03:01        11.8        12.4      -0.002
  
  
  **********************
  Node Surcharge Summary
  **********************
  
  Surcharging occurs when water rises above the top of the highest conduit.
  ---------------------------------------------------------------------
                                               Max. Height   Min. Depth
                                   Hours       Above Crown    Below Rim
  Node                 Type      Surcharged         Meters       Meters
  ---------------------------------------------------------------------
  WS02004401           JUNCTION        0.26          0.136        1.524
  WS02004402           JUNCTION        0.28          0.137        1.603
  WS02004403           JUNCTION        0.29          0.122        1.908
  WS02004404           JUNCTION        0.50          0.177        2.603
  WS02004406           JUNCTION        0.42          0.116        2.334
  WS02004405           JUNCTION        0.46          0.156        2.644
  WS02006109           JUNCTION        4.04          0.492        1.328
  WS02006110           JUNCTION        1.49          0.239        1.611
  WS02006112           JUNCTION        2.12          0.417        1.263
  WS02006115           JUNCTION        0.19          0.079        2.171
  WS02006116           JUNCTION        0.20          0.084        2.206
  WS02006230           JUNCTION        1.14          0.439        1.131
  WS02006231           JUNCTION        1.51          0.508        1.022
  WS02006232           JUNCTION        3.82          0.664        0.816
  WS02006234           JUNCTION        2.68          0.598        0.642
  WS02006235           JUNCTION        3.17          0.662        0.628
  WS02006238           JUNCTION        3.28          0.671        0.759
  WS02006240           JUNCTION        2.49          0.570        0.820
  WS02006242           JUNCTION        2.77          0.604        0.216
  WS02006243           JUNCTION        1.89          0.501        0.269
  WS02006245           JUNCTION        1.67          0.458        0.392
  WS02006247           JUNCTION        1.70          0.458        0.302
  WS02006248           JUNCTION        1.48          0.375        0.005
  WS02006249           JUNCTION        1.55          0.390        0.000
  WS02006239           JUNCTION        2.83          0.608        0.682
  WS02006251           JUNCTION        0.77          0.353        0.827
  WS02006252           JUNCTION        1.94          0.470        0.630
  WS02006253           JUNCTION        0.81          0.755        1.725
  WS02006256           JUNCTION        6.88          2.050        0.000
  WS02006228           JUNCTION        4.00          0.612        1.588
  YS02001748           JUNCTION        5.30          0.280        0.910
  YS02001751           JUNCTION        5.49          0.560        0.640
  YS02001754           JUNCTION        5.69          0.784        0.366
  YS02001762           JUNCTION        5.87          1.040        0.110
  YS02001765           JUNCTION        5.84          0.991        0.109
  YS02001767           JUNCTION        5.81          0.940        0.090
  YS02001770           JUNCTION        5.80          0.893        0.027
  YS02001774           JUNCTION        5.86          0.981        0.069
  YS02001779           JUNCTION        5.67          0.680        0.000
  YS02001882           JUNCTION        0.94          0.619        0.211
  YS02001884           JUNCTION        0.96          0.663        0.207
  YS02001759           JUNCTION        5.89          1.078        0.132
  YS02001887           JUNCTION        1.04          0.748        0.202
  YS02001890           JUNCTION        1.07          0.760        0.000
  YS02001898           JUNCTION        0.90          0.528        0.212
  YS02001901           JUNCTION        1.00          0.673        0.197
  YS02001904           JUNCTION        0.98          0.635        0.215
  YS02001907           JUNCTION        1.77          0.950        0.000
  YS02001910           JUNCTION        1.12          0.771        0.329
  YS02001915           JUNCTION        0.92          0.578        0.422
  YS02001918           JUNCTION        0.71          0.240        0.570
  YS02001619           JUNCTION        5.47          0.476        0.134
  YS02001629           JUNCTION        5.48          0.465        0.005
  YS02001641           JUNCTION        5.85          0.936        0.164
  YS02001644           JUNCTION        5.85          0.920        0.000
  YS02001652           JUNCTION        5.73          1.120        0.010
  YS02001655           JUNCTION        5.50          1.083        0.117
  YS02001920           JUNCTION        0.75          0.308        0.832
  YS02001658           JUNCTION        5.33          1.141        0.159
  YS02001661           JUNCTION        0.23          1.151        0.239
  YS02001622           JUNCTION        5.50          0.499        0.121
  YS02001633           JUNCTION        5.83          0.925        0.135
  YS02001649           JUNCTION        5.88          1.050        0.000
  YS02001757           JUNCTION        5.97          1.178        0.032
  YS02001895           JUNCTION        0.91          0.563        0.187
  YS02001625           JUNCTION        5.76          0.780        0.000
  YS02163301           JUNCTION        5.81          0.883        0.147
  YS02163601           JUNCTION        5.87          0.988        0.092
  YS02164001           JUNCTION        5.83          0.919        0.181
  YS02001647           JUNCTION        5.75          0.800        0.100
  YS02006553           JUNCTION        1.85          0.965        0.225
  YS02006561           JUNCTION        0.76          0.267        0.883
  YS02006556           JUNCTION        1.36          0.880        0.470
  YS02006558           JUNCTION        1.32          0.860        0.540
  YS02001783           JUNCTION        1.23          0.910        0.690
  YS02001784           JUNCTION        1.21          0.760        0.730
  YS02001786           JUNCTION        1.16          0.493        0.937
  YS02001788           JUNCTION        1.11          0.306        1.174
  YS02001790           JUNCTION        1.57          1.157        0.000
  YS02001791           JUNCTION        1.65          1.512        0.408
  YS02001793           JUNCTION        1.98          1.712        0.888
  
  
  *********************
  Node Flooding Summary
  *********************
  
  Flooding refers to all water that overflows a node, whether it ponds or not.
  --------------------------------------------------------------------------
                                                             Total   Maximum
                                 Maximum   Time of Max       Flood    Ponded
                        Hours       Rate    Occurrence      Volume     Depth
  Node                 Flooded       LPS   days hr:min    10^6 ltr    Meters
  --------------------------------------------------------------------------
  WS02006249              0.72    261.25      0  03:00       0.216     0.000
  WS02006256              3.91    810.38      0  03:02       6.530     0.000
  YS02001779              2.50    534.21      0  03:01       1.780     0.000
  YS02001890              0.01      2.59      0  03:00       0.000     0.000
  YS02001907              0.55    401.87      0  03:01       0.415     0.000
  YS02001644              4.53   1309.91      0  03:00       7.682     0.000
  YS02001649              0.05     29.68      0  02:42       0.002     0.000
  YS02001625              1.19    235.65      0  03:01       0.464     0.000
  YS02001790              0.01    204.25      0  04:31       0.000     0.000
  JK-storage              0.50    720.12      0  02:30       0.702     0.000
  XR-storage              3.05    464.69      0  03:01       1.875     0.000
  
  
  **********************
  Storage Volume Summary
  **********************
  
  --------------------------------------------------------------------------------------------------
                         Average     Avg  Evap Exfil       Maximum     Max    Time of Max    Maximum
                          Volume    Pcnt  Pcnt  Pcnt        Volume    Pcnt     Occurrence    Outflow
  Storage Unit           1000 m3    Full  Loss  Loss       1000 m3    Full    days hr:min        LPS
  --------------------------------------------------------------------------------------------------
  JK-storage               0.130      45     0     0         0.291     100       0  02:22     983.00
  CC-storage               3.290      21     0     0         3.949      25       0  03:16     400.00
  XR-storage               0.802      87     0     0         0.926     100       0  02:55     380.00
  
  
  ***********************
  Outfall Loading Summary
  ***********************
  
  ---------------------------------------------------------------------------------------------------------------------------------
                         Flow       Avg       Max       Total         Total         Total         Total         Total         Total
                         Freq      Flow      Flow      Volume           COD            SS            TN            TP         NH4-N
  Outfall Node           Pcnt       LPS       LPS    10^6 ltr            kg            kg            kg            kg            kg
  ---------------------------------------------------------------------------------------------------------------------------------
  WSC                   99.98    794.19   1228.80      19.889      2329.231      3980.571       151.431        17.861        91.765
  ---------------------------------------------------------------------------------------------------------------------------------
  System                99.98    794.19   1228.80      19.889      2329.231      3980.571       151.431        17.861        91.765
  
  
  ********************
  Link Flow Summary
  ********************
  
  -----------------------------------------------------------------------------
                                 Maximum  Time of Max   Maximum    Max/    Max/
                                  |Flow|   Occurrence   |Veloc|    Full    Full
  Link                 Type          LPS  days hr:min     m/sec    Flow   Depth
  -----------------------------------------------------------------------------
  WS02003066WSF200     CONDUIT    830.02     0  03:05      2.94    0.14    0.30
  WS02006287WS02006284 CONDUIT    413.48     0  03:02      2.04    0.19    0.30
  WS02006284WS02006280 CONDUIT    413.63     0  03:02      2.28    0.17    0.28
  WS02006280WS02006229 CONDUIT    413.63     0  03:02      3.59    0.09    0.25
  WS02006229WS02006228 CONDUIT    817.34     0  03:02      1.63    2.71    1.00
  WS02006256WS02006235 CONDUIT    288.92     0  00:00      4.23    3.06    1.00
  WS02006253WS02006251 CONDUIT    110.00     0  03:08      0.58    0.33    1.00
  WS02006252WS02006251 CONDUIT    404.42     0  04:50      3.22    1.48    1.00
  WS02006251WS02006249 CONDUIT    486.30     0  03:00      1.26    1.40    1.00
  WS02006249WS02006248 CONDUIT    414.71     0  05:30      1.14    2.27    1.00
  WS02006248WS02006247 CONDUIT    413.54     0  05:30      1.11    0.90    1.00
  WS02006247WS02006245 CONDUIT    413.80     0  05:30      1.08    3.28    1.00
  WS02006245WS02006243 CONDUIT    413.02     0  05:30      1.09    1.22    1.00
  WS02006243WS02006242 CONDUIT    412.93     0  05:30      1.07    0.88    1.00
  WS02006242WS02006240 CONDUIT    412.79     0  05:30      1.07    1.64    1.00
  WS02006240WS02006239 CONDUIT    413.59     0  05:30      1.07    1.30    1.00
  WS02006239WS02006238 CONDUIT    413.92     0  05:30      1.08    1.32    1.00
  WS02006238WS02006235 CONDUIT    415.55     0  05:30      1.45    0.93    1.00
  WS02006235WS02006234 CONDUIT    523.26     0  06:10      1.36    5.52    1.00
  WS02006234WS02006232 CONDUIT    522.54     0  06:10      1.39    1.06    1.00
  WS02006232WS02006231 CONDUIT    522.25     0  06:12      1.36    1.09    1.00
  WS02006231WS02006230 CONDUIT    522.25     0  06:10      1.36    7.92    1.00
  WS02006230WS02006229 CONDUIT    535.02     0  06:10      1.39   11.91    1.00
  WS02006228WS02006109 CONDUIT    817.04     0  03:02      1.63    3.57    1.00
  WS02006116WS02004401 CONDUIT    831.20     0  03:03      1.06    1.15    1.00
  WS02006115WS02006116 CONDUIT    830.95     0  03:03      1.06    1.07    1.00
  WS02006113WS02006111 CONDUIT    817.74     0  03:02      2.58    0.98    0.81
  WS02006112WS02006115 CONDUIT    831.02     0  03:03      1.06    0.49    1.00
  WS02006111WS02006112 CONDUIT    818.24     0  03:03      1.73    0.39    0.90
  WS02006110WS02006113 CONDUIT    818.16     0  03:02      1.74    0.74    0.90
  WS02006109WS02006110 CONDUIT    818.41     0  03:02      1.63    1.57    1.00
  WS02004411WS02004412 CONDUIT    829.83     0  03:04      1.16    1.18    0.85
  WS02004401WS02004402 CONDUIT    831.69     0  03:03      1.06    1.00    1.00
  WS02004413WS02003067 CONDUIT    829.83     0  03:04      1.42    0.36    0.70
  WS02004412WS02004413 CONDUIT    829.80     0  03:04      1.10    0.56    0.91
  WS02004410WS02004411 CONDUIT    829.96     0  03:04      1.15    1.13    0.86
  WS02004409WS02004410 CONDUIT    830.22     0  03:03      1.15    1.07    0.87
  WS02004407WS02004409 CONDUIT    830.69     0  03:03      1.64    0.29    0.62
  WS02004406WS02004407 CONDUIT    831.04     0  03:03      1.45    0.37    0.69
  WS02004405WS02004406 CONDUIT    830.99     0  03:03      1.10    1.64    1.00
  WS02004404WS02004405 CONDUIT    832.41     0  03:03      1.15    8.16    1.00
  WS02004403WS02004404 CONDUIT    831.43     0  03:03      1.06    0.60    1.00
  WS02004402WS02004403 CONDUIT    831.09     0  03:04      1.06    1.19    1.00
  WS02004139WS02001211 CONDUIT    383.85     0  03:15      0.90    0.49    0.63
  WS02004138WS02004139 CONDUIT    395.52     0  00:00      3.64    0.08    0.46
  WS02003067WS02003066 CONDUIT    829.96     0  03:05      1.54    0.27    0.48
  WS02001213WS02003059 CONDUIT    402.59     0  03:15      0.89    0.66    0.84
  WS02001212WS02001213 CONDUIT    398.31     0  03:16      1.32    0.61    0.53
  WS02001211WS02001212 CONDUIT    394.77     0  03:15      0.78    0.30    0.69
  WS02003072WS02003073 CONDUIT   1226.86     0  03:07      1.90    2.65    0.56
  WS02003069WS02003072 CONDUIT   1226.79     0  03:07      1.77    0.59    0.59
  WS02003060WS02003069 CONDUIT   1226.56     0  03:06      1.99    0.48    0.54
  WS02003059WS02003060 CONDUIT    408.15     0  03:14      0.95    0.27    0.74
  HS02004901HS02004770 CONDUIT     20.53     0  03:01      0.07    0.08    0.42
  HS02004876HS02004881 CONDUIT     76.55     0  03:01      0.95    0.81    0.12
  HS02004870HS02004876 CONDUIT     61.90     0  03:01      0.65    0.04    0.14
  HS02004842HS02004848 CONDUIT     12.41     0  03:01      0.06    0.01    0.31
  HS02004837HS02004842 CONDUIT     12.98     0  03:02      0.42    0.01    0.32
  HS02004830HS02004837 CONDUIT     43.71     0  03:01      0.57    0.04    0.11
  HS02004824HS02004830 CONDUIT     43.67     0  03:01      0.59    0.06    0.11
  HS02004817HS02004824 CONDUIT     85.68     0  03:01      0.26    0.04    0.48
  HS02004770HS02004777 CONDUIT    104.13     0  03:01      0.35    0.19    0.43
  HS02004799HS02004480 CONDUIT    258.30     0  03:01      0.83    0.33    0.44
  HS02004792HS02004799 CONDUIT    237.05     0  03:01      0.95    0.15    0.36
  HS02004788HS02004792 CONDUIT    135.43     0  03:01      1.06    0.09    0.18
  HS02004785HS02004788 CONDUIT    103.22     0  03:02      0.71    0.78    0.21
  HS02004777HS02004785 CONDUIT    103.37     0  03:01      0.42    0.13    0.35
  HS02004480HS02004478 CONDUIT    302.29     0  03:01      1.26    1.27    0.34
  HS02004479HS02004480 CONDUIT     46.29     0  03:02      0.32    0.04    0.43
  HS02004862HS02004870 CONDUIT     47.43     0  03:01      0.66    0.05    0.10
  HS02004848HS02004852 CONDUIT     21.94     0  03:01      0.45    0.02    0.07
  HS02004856HS02004862 CONDUIT     32.47     0  03:01      0.48    0.03    0.10
  HS02004852HS02004856 CONDUIT     21.85     0  03:02      0.25    0.02    0.13
  HS02004802HS02004478 CONDUIT    111.52     0  03:02      0.45    0.10    0.36
  HS02004478WS02006287 CONDUIT    413.23     0  03:01      1.75    0.12    0.26
  HS02004817HS02004807 CONDUIT     86.14     0  03:01      0.19    0.05    0.63
  HS02004807HS02004802 CONDUIT    111.37     0  03:01      0.38    0.21    0.42
  YS02001759YS02001757 CONDUIT    570.79     0  02:38      0.73    0.41    1.00
  YS02001762YS02001759 CONDUIT    290.43     0  02:38      0.37    0.33    1.00
  YS02001765YS02001762 CONDUIT    290.57     0  02:38      0.37    0.27    1.00
  YS02001770YS02001767 CONDUIT    290.30     0  02:38      0.37    1.15    1.00
  YS02001774YS02001770 CONDUIT    534.61     0  03:01      0.68    0.34    1.00
  YS02001779YS02001774 CONDUIT    534.44     0  03:01      0.68    0.27    1.00
  YS02001649YS02001757 CONDUIT    825.17     0  02:35      1.05    0.50    1.00
  YS02001767YS02001765 CONDUIT    290.02     0  02:38      0.37    0.36    1.00
  YS02006561YS02001783 CONDUIT   1019.56     0  02:46      2.15    0.53    1.00
  YS02001783YS02001784 CONDUIT   1019.42     0  02:46      2.03    1.41    1.00
  YS02001784YS02001785 CONDUIT   1020.54     0  02:46      2.03    2.37    1.00
  YS02001788YS02001790 CONDUIT   1020.67     0  02:46      2.44    0.75    1.00
  YS02001790YS02001791 CONDUIT   1020.92     0  02:46      2.91    1.11    1.00
  YS02001791YS02001793 CONDUIT   1021.20     0  02:46      5.75    0.44    1.00
  YS02001910YS02001907 CONDUIT    455.48     0  03:01      0.58    0.26    1.00
  YS02001786YS02001788 CONDUIT   1020.49     0  02:46      2.31    1.97    1.00
  YS02001915YS02001910 CONDUIT    455.44     0  03:00      0.59    0.23    1.00
  YS02001918YS02001915 CONDUIT    245.11     0  03:31      0.44    0.14    1.00
  YS02001923YS02001920 CONDUIT    187.91     0  03:29      0.72    0.08    1.00
  YS02001926YS02001923 CONDUIT    178.96     0  02:48      0.83    0.26    0.86
  YS02001929YS02001926 CONDUIT    158.71     0  03:00      0.89    0.08    0.75
  YS02001920YS02001918 CONDUIT    207.12     0  03:31      0.70    0.20    1.00
  YS02001629YS02163301 CONDUIT    202.03     0  02:26      0.26    0.25    1.00
  YS02001619YS02001622 CONDUIT    291.04     0  03:01      0.61    0.43    1.00
  YS02001622YS02001625 CONDUIT    290.76     0  03:01      0.37    0.16    1.00
  YS02001625YS02001629 CONDUIT    204.61     0  02:17      0.26    0.10    1.00
  YS02163301YS02001633 CONDUIT    202.50     0  02:27      0.26    0.19    1.00
  YS02163601YS02164001 CONDUIT    398.18     0  02:35      0.51    0.35    1.00
  YS02164001YS02001641 CONDUIT    398.57     0  02:35      0.51    0.54    1.00
  YS02001641YS02001644 CONDUIT    398.75     0  02:35      0.51    1.29    1.00
  YS02001647YS02001649 CONDUIT    651.51     0  03:17      0.83    0.34    1.00
  YS02006553YS02006556 CONDUIT    704.62     0  03:31      0.90    0.60    1.00
  YS02006556YS02006558 CONDUIT    704.31     0  03:31      0.90    0.56    1.00
  YSB6556YSB1171       CONDUIT     25.76     0  03:03      0.09    0.03    0.70
  YS02001907YS02006553 CONDUIT    704.18     0  03:31      0.78    0.83    1.00
  YS02006558YS02006561 CONDUIT   1019.54     0  02:46      3.61    2.25    1.00
  YS02001633YS02163601 CONDUIT    397.82     0  02:35      0.51    0.42    1.00
  YS02001644YS02001647 CONDUIT    652.17     0  03:16      0.83    0.38    1.00
  YS02001745YS02001748 CONDUIT    493.10     0  02:28      1.47    0.19    0.96
  YS02001748YS02001751 CONDUIT    344.49     0  03:01      1.06    0.17    1.00
  YS02001751YS02001754 CONDUIT    344.04     0  03:01      0.92    0.17    1.00
  YS02001754YS02001757 CONDUIT    344.14     0  03:01      0.44    0.14    1.00
  YS02001882YS02001884 CONDUIT     23.19     0  02:25      0.13    0.03    1.00
  YS02001884YS02001887 CONDUIT     49.71     0  02:25      0.09    0.07    1.00
  YS02001890YS02001895 CONDUIT    495.61     0  03:01      0.63    0.23    1.00
  YS02001895YS02001898 CONDUIT    495.32     0  03:01      0.63    0.86    1.00
  YS02001898YS02001901 CONDUIT    495.83     0  03:01      0.63    0.32    1.00
  YS02001901YS02001904 CONDUIT    495.51     0  03:01      0.63    0.77    1.00
  YS02001904YS02001907 CONDUIT    495.71     0  03:01      0.63    0.17    1.00
  YS02001887YS02001890 CONDUIT    495.83     0  03:01      0.63    0.85    1.00
  YS02001652YS02001649 CONDUIT    381.64     0  03:01      0.63    0.19    1.00
  YS02001655YS02001652 CONDUIT    379.89     0  03:01      0.98    0.18    1.00
  YS02001658YS02001655 CONDUIT    378.56     0  03:01      1.22    0.16    1.00
  YS02001661YS02001658 CONDUIT    619.64     0  02:23      1.55    0.24    1.00
  YS02001664YS02001661 CONDUIT    617.49     0  02:40      1.43    0.19    0.75
  YSB1154YSB6556       CONDUIT     25.82     0  03:01      0.17    0.05    0.59
  YSB1174YSB1171       CONDUIT     20.15     0  03:01      0.07    0.03    0.70
  YSB1171HS02004479    CONDUIT     44.90     0  03:02      0.54    0.03    0.55
  HS02004881HS02006253 CONDUIT     85.20     0  02:56      2.12    0.02    0.53
  YS02001793JiankangQianchi CONDUIT   1020.97     0  02:46     16.80    0.08    1.00
  YS02001757CaochengTiaoxuchi CONDUIT   1576.40     0  02:35      2.02    0.69    1.00
  WSF200WS02003060     CONDUIT    830.18     0  03:05      1.85    0.18    0.42
  1                    CONDUIT   1228.80     0  03:08      3.51    0.43    0.46
  CC-Pump-1            PUMP       200.00     0  03:30              1.00
  CC-Pump-2            PUMP       200.00     0  04:50              1.00
  JK-Pump-1            PUMP       300.00     0  00:00              1.00
  JK-Pump-2            PUMP       683.00     0  02:40              1.00
  XR-Pump-1            PUMP        95.00     0  00:00              1.00
  XR-Pump-2            PUMP        95.00     0  00:00              1.00
  XR-Pump-3            PUMP        95.00     0  00:00              1.00
  XR-Pump-4            PUMP        95.00     0  00:00              1.00
  
  
  ***************************
  Flow Classification Summary
  ***************************
  
  -------------------------------------------------------------------------------------
                      Adjusted    ---------- Fraction of Time in Flow Class ---------- 
                       /Actual         Up    Down  Sub   Sup   Up    Down  Norm  Inlet 
  Conduit               Length    Dry  Dry   Dry   Crit  Crit  Crit  Crit  Ltd   Ctrl  
  -------------------------------------------------------------------------------------
  WS02003066WSF200        1.00   0.01  0.02  0.00  0.00  0.97  0.00  0.00  0.63  0.00
  WS02006287WS02006284    1.00   0.03  0.01  0.00  0.64  0.32  0.00  0.00  0.62  0.00
  WS02006284WS02006280    1.00   0.04  0.00  0.00  0.00  0.00  0.00  0.96  0.00  0.00
  WS02006280WS02006229    1.00   0.04  0.00  0.00  0.00  0.02  0.00  0.95  0.02  0.00
  WS02006229WS02006228    1.00   0.00  0.00  0.00  1.00  0.00  0.00  0.00  0.00  0.00
  WS02006256WS02006235    1.00   0.00  0.00  0.00  1.00  0.00  0.00  0.00  0.00  0.00
  WS02006253WS02006251    1.00   0.02  0.01  0.00  0.96  0.00  0.01  0.00  0.00  0.00
  WS02006252WS02006251    1.00   0.17  0.00  0.00  0.08  0.00  0.76  0.00  0.00  0.00
  WS02006251WS02006249    1.00   0.00  0.00  0.00  1.00  0.00  0.00  0.00  0.20  0.00
  WS02006249WS02006248    1.00   0.00  0.01  0.00  0.93  0.00  0.07  0.00  0.00  0.00
  WS02006248WS02006247    1.00   0.01  0.00  0.00  0.99  0.00  0.00  0.00  0.13  0.00
  WS02006247WS02006245    1.00   0.00  0.00  0.00  0.99  0.00  0.00  0.00  0.00  0.00
  WS02006245WS02006243    1.00   0.00  0.00  0.00  0.97  0.00  0.00  0.03  0.00  0.00
  WS02006243WS02006242    1.00   0.00  0.00  0.00  1.00  0.00  0.00  0.00  0.21  0.00
  WS02006242WS02006240    1.00   0.00  0.00  0.00  1.00  0.00  0.00  0.00  0.00  0.00
  WS02006240WS02006239    1.00   0.00  0.00  0.00  0.96  0.00  0.00  0.04  0.01  0.00
  WS02006239WS02006238    1.00   0.00  0.00  0.00  1.00  0.00  0.00  0.00  0.12  0.00
  WS02006238WS02006235    1.00   0.00  0.00  0.00  1.00  0.00  0.00  0.00  0.00  0.00
  WS02006235WS02006234    1.00   0.00  0.00  0.00  0.97  0.00  0.03  0.00  0.00  0.00
  WS02006234WS02006232    1.00   0.00  0.00  0.00  1.00  0.00  0.00  0.00  0.08  0.00
  WS02006232WS02006231    1.00   0.00  0.00  0.00  1.00  0.00  0.00  0.00  0.00  0.00
  WS02006231WS02006230    1.00   0.00  0.00  0.00  0.71  0.00  0.29  0.00  0.00  0.00
  WS02006230WS02006229    1.00   0.00  0.00  0.00  1.00  0.00  0.00  0.00  0.00  0.00
  WS02006228WS02006109    1.00   0.00  0.00  0.00  1.00  0.00  0.00  0.00  0.00  0.00
  WS02006116WS02004401    1.00   0.01  0.00  0.00  0.99  0.00  0.00  0.00  0.00  0.00
  WS02006115WS02006116    1.00   0.01  0.00  0.00  0.99  0.00  0.00  0.00  0.00  0.00
  WS02006113WS02006111    1.00   0.01  0.00  0.00  0.02  0.97  0.00  0.00  0.16  0.00
  WS02006112WS02006115    1.00   0.01  0.00  0.00  0.99  0.00  0.00  0.00  0.00  0.00
  WS02006111WS02006112    1.00   0.01  0.00  0.00  0.99  0.00  0.00  0.00  0.92  0.00
  WS02006110WS02006113    1.00   0.00  0.00  0.00  0.99  0.00  0.00  0.00  0.00  0.00
  WS02006109WS02006110    1.00   0.00  0.00  0.00  0.99  0.00  0.00  0.00  0.00  0.00
  WS02004411WS02004412    1.00   0.02  0.00  0.00  0.98  0.00  0.00  0.00  0.00  0.00
  WS02004401WS02004402    1.00   0.01  0.00  0.00  0.99  0.00  0.00  0.00  0.00  0.00
  WS02004413WS02003067    1.00   0.02  0.01  0.00  0.00  0.00  0.98  0.00  0.00  0.00
  WS02004412WS02004413    1.00   0.02  0.00  0.00  0.98  0.00  0.00  0.00  0.01  0.00
  WS02004410WS02004411    1.00   0.02  0.00  0.00  0.98  0.00  0.00  0.00  0.00  0.00
  WS02004409WS02004410    1.00   0.01  0.00  0.00  0.99  0.00  0.00  0.00  0.02  0.00
  WS02004407WS02004409    1.00   0.01  0.00  0.00  0.98  0.00  0.00  0.00  0.95  0.00
  WS02004406WS02004407    1.00   0.00  0.01  0.00  0.99  0.00  0.00  0.00  0.00  0.00
  WS02004405WS02004406    1.00   0.00  0.00  0.00  1.00  0.00  0.00  0.00  0.00  0.00
  WS02004404WS02004405    1.00   0.00  0.00  0.00  1.00  0.00  0.00  0.00  0.00  0.00
  WS02004403WS02004404    1.00   0.00  0.01  0.00  0.99  0.00  0.00  0.00  0.00  0.00
  WS02004402WS02004403    1.00   0.01  0.00  0.00  0.99  0.00  0.00  0.00  0.00  0.00
  WS02004139WS02001211    1.00   0.00  0.00  0.00  1.00  0.00  0.00  0.00  0.00  0.00
  WS02004138WS02004139    1.00   0.00  0.00  0.00  1.00  0.00  0.00  0.00  1.00  0.00
  WS02003067WS02003066    1.00   0.02  0.00  0.00  0.97  0.00  0.00  0.00  0.00  0.00
  WS02001213WS02003059    1.00   0.00  0.00  0.00  1.00  0.00  0.00  0.00  0.00  0.00
  WS02001212WS02001213    1.00   0.00  0.00  0.00  0.92  0.00  0.08  0.00  0.00  0.00
  WS02001211WS02001212    1.00   0.00  0.00  0.00  1.00  0.00  0.00  0.00  0.00  0.00
  WS02003072WS02003073    1.00   0.00  0.00  0.00  0.00  0.00  0.00  1.00  0.00  0.00
  WS02003069WS02003072    1.00   0.00  0.00  0.00  1.00  0.00  0.00  0.00  0.10  0.00
  WS02003060WS02003069    1.00   0.00  0.00  0.00  0.99  0.01  0.00  0.00  0.07  0.00
  WS02003059WS02003060    1.00   0.00  0.00  0.00  1.00  0.00  0.00  0.00  0.01  0.00
  HS02004901HS02004770    1.00   0.03  0.00  0.00  0.97  0.00  0.00  0.00  0.00  0.00
  HS02004876HS02004881    1.00   0.01  0.00  0.00  0.93  0.06  0.00  0.00  0.00  0.00
  HS02004870HS02004876    1.00   0.00  0.00  0.00  0.99  0.00  0.00  0.00  0.95  0.00
  HS02004842HS02004848    1.00   0.00  0.03  0.00  0.97  0.00  0.00  0.00  0.55  0.00
  HS02004837HS02004842    1.00   0.00  0.00  0.00  1.00  0.00  0.00  0.00  0.11  0.00
  HS02004830HS02004837    1.00   0.00  0.00  0.00  1.00  0.00  0.00  0.00  0.99  0.00
  HS02004824HS02004830    1.00   0.00  0.00  0.00  1.00  0.00  0.00  0.00  0.00  0.00
  HS02004817HS02004824    1.00   0.00  0.00  0.00  1.00  0.00  0.00  0.00  1.00  0.00
  HS02004770HS02004777    1.00   0.00  0.03  0.00  0.97  0.00  0.00  0.00  0.02  0.00
  HS02004799HS02004480    1.00   0.00  0.01  0.00  0.96  0.00  0.03  0.00  0.00  0.00
  HS02004792HS02004799    1.00   0.00  0.00  0.00  1.00  0.00  0.00  0.00  0.98  0.00
  HS02004788HS02004792    1.00   0.00  0.00  0.00  1.00  0.00  0.00  0.00  0.98  0.00
  HS02004785HS02004788    1.00   0.00  0.00  0.00  1.00  0.00  0.00  0.00  0.00  0.00
  HS02004777HS02004785    1.00   0.00  0.00  0.00  1.00  0.00  0.00  0.00  0.12  0.00
  HS02004480HS02004478    1.00   0.03  0.00  0.00  0.73  0.00  0.00  0.24  0.00  0.00
  HS02004479HS02004480    1.00   0.01  0.00  0.00  0.99  0.00  0.00  0.00  0.11  0.00
  HS02004862HS02004870    1.00   0.00  0.00  0.00  1.00  0.00  0.00  0.00  0.03  0.00
  HS02004848HS02004852    1.00   0.03  0.00  0.00  0.97  0.00  0.00  0.00  0.62  0.00
  HS02004856HS02004862    1.00   0.00  0.04  0.00  0.96  0.00  0.00  0.00  0.83  0.00
  HS02004852HS02004856    1.00   0.03  0.00  0.00  0.96  0.00  0.00  0.00  0.85  0.00
  HS02004802HS02004478    1.00   0.03  0.00  0.00  0.96  0.00  0.00  0.00  0.02  0.00
  HS02004478WS02006287    1.00   0.04  0.00  0.00  0.79  0.17  0.00  0.00  0.64  0.00
  HS02004817HS02004807    1.00   0.00  0.03  0.00  0.97  0.00  0.00  0.00  0.01  0.00
  HS02004807HS02004802    1.00   0.03  0.00  0.00  0.96  0.00  0.00  0.00  0.00  0.00
  YS02001759YS02001757    1.00   0.00  0.00  0.00  1.00  0.00  0.00  0.00  0.16  0.00
  YS02001762YS02001759    1.00   0.00  0.00  0.00  1.00  0.00  0.00  0.00  0.03  0.00
  YS02001765YS02001762    1.00   0.00  0.00  0.00  1.00  0.00  0.00  0.00  0.13  0.00
  YS02001770YS02001767    1.00   0.00  0.00  0.00  1.00  0.00  0.00  0.00  0.00  0.00
  YS02001774YS02001770    1.00   0.00  0.03  0.00  0.96  0.00  0.00  0.00  0.03  0.00
  YS02001779YS02001774    1.00   0.00  0.00  0.00  1.00  0.00  0.00  0.00  0.18  0.00
  YS02001649YS02001757    1.00   0.00  0.00  0.00  1.00  0.00  0.00  0.00  0.16  0.00
  YS02001767YS02001765    1.00   0.00  0.00  0.00  1.00  0.00  0.00  0.00  0.00  0.00
  YS02006561YS02001783    1.00   0.05  0.00  0.00  0.28  0.67  0.00  0.00  0.48  0.00
  YS02001783YS02001784    1.00   0.00  0.05  0.00  0.95  0.00  0.00  0.00  0.00  0.00
  YS02001784YS02001785    1.00   0.00  0.00  0.00  1.00  0.00  0.00  0.00  0.17  0.00
  YS02001788YS02001790    1.00   0.00  0.00  0.00  0.32  0.68  0.00  0.00  0.42  0.00
  YS02001790YS02001791    1.00   0.00  0.00  0.00  0.30  0.70  0.00  0.00  0.52  0.00
  YS02001791YS02001793    1.00   0.00  0.00  0.00  0.34  0.66  0.00  0.00  0.04  0.00
  YS02001910YS02001907    1.00   0.00  0.00  0.00  0.99  0.00  0.00  0.01  0.12  0.00
  YS02001786YS02001788    1.00   0.00  0.00  0.00  0.30  0.70  0.00  0.00  0.00  0.00
  YS02001915YS02001910    1.00   0.00  0.00  0.00  0.99  0.01  0.00  0.00  0.15  0.00
  YS02001918YS02001915    1.00   0.00  0.00  0.00  0.99  0.01  0.00  0.00  0.55  0.00
  YS02001923YS02001920    1.00   0.00  0.00  0.00  1.00  0.00  0.00  0.00  0.84  0.00
  YS02001926YS02001923    1.00   0.00  0.02  0.00  0.12  0.00  0.86  0.00  0.00  0.00
  YS02001929YS02001926    1.00   0.00  0.03  0.00  0.97  0.00  0.00  0.00  0.76  0.00
  YS02001920YS02001918    1.00   0.00  0.00  0.00  1.00  0.00  0.00  0.00  0.00  0.00
  YS02001629YS02163301    1.00   0.04  0.00  0.00  0.96  0.00  0.00  0.00  0.00  0.00
  YS02001619YS02001622    1.00   0.03  0.00  0.00  0.97  0.00  0.00  0.00  0.00  0.00
  YS02001622YS02001625    1.00   0.03  0.00  0.00  0.97  0.00  0.00  0.00  0.04  0.00
  YS02001625YS02001629    1.00   0.03  0.01  0.00  0.94  0.00  0.02  0.00  0.00  0.00
  YS02163301YS02001633    1.00   0.00  0.04  0.00  0.96  0.00  0.00  0.00  0.00  0.00
  YS02163601YS02164001    1.00   0.00  0.02  0.00  0.98  0.00  0.00  0.00  0.00  0.00
  YS02164001YS02001641    1.00   0.00  0.02  0.00  0.98  0.00  0.00  0.00  0.06  0.00
  YS02001641YS02001644    1.00   0.00  0.00  0.00  1.00  0.00  0.00  0.00  0.00  0.00
  YS02001647YS02001649    1.00   0.00  0.04  0.00  0.96  0.00  0.00  0.00  0.01  0.00
  YS02006553YS02006556    1.00   0.00  0.00  0.00  1.00  0.00  0.00  0.00  0.03  0.00
  YS02006556YS02006558    1.00   0.00  0.00  0.00  1.00  0.00  0.00  0.00  0.00  0.00
  YSB6556YSB1171          1.00   0.01  0.02  0.00  0.97  0.00  0.00  0.00  0.00  0.00
  YS02001907YS02006553    1.00   0.00  0.01  0.00  0.99  0.00  0.00  0.00  0.00  0.00
  YS02006558YS02006561    1.00   0.05  0.00  0.00  0.12  0.83  0.00  0.00  0.48  0.00
  YS02001633YS02163601    1.00   0.00  0.00  0.00  1.00  0.00  0.00  0.00  0.15  0.00
  YS02001644YS02001647    1.00   0.00  0.04  0.00  0.96  0.00  0.00  0.00  0.00  0.00
  YS02001745YS02001748    1.00   0.00  0.00  0.00  0.92  0.01  0.00  0.08  0.04  0.00
  YS02001748YS02001751    1.00   0.00  0.00  0.00  0.97  0.03  0.00  0.00  0.15  0.00
  YS02001751YS02001754    1.00   0.00  0.00  0.00  0.95  0.00  0.00  0.05  0.02  0.00
  YS02001754YS02001757    1.00   0.00  0.00  0.00  1.00  0.00  0.00  0.00  0.18  0.00
  YS02001882YS02001884    1.00   0.04  0.00  0.00  0.96  0.00  0.00  0.00  0.00  0.00
  YS02001884YS02001887    1.00   0.02  0.01  0.00  0.97  0.00  0.00  0.00  0.00  0.00
  YS02001890YS02001895    1.00   0.00  0.04  0.00  0.96  0.00  0.00  0.00  0.00  0.00
  YS02001895YS02001898    1.00   0.04  0.00  0.00  0.95  0.00  0.01  0.00  0.00  0.00
  YS02001898YS02001901    1.00   0.04  0.00  0.00  0.96  0.00  0.00  0.00  0.01  0.00
  YS02001901YS02001904    1.00   0.04  0.00  0.00  0.96  0.00  0.00  0.00  0.00  0.00
  YS02001904YS02001907    1.00   0.00  0.04  0.00  0.96  0.00  0.00  0.00  0.00  0.00
  YS02001887YS02001890    1.00   0.00  0.00  0.00  0.99  0.00  0.01  0.00  0.00  0.00
  YS02001652YS02001649    1.00   0.00  0.00  0.00  1.00  0.00  0.00  0.00  0.16  0.00
  YS02001655YS02001652    1.00   0.00  0.00  0.00  0.95  0.00  0.00  0.05  0.02  0.00
  YS02001658YS02001655    1.00   0.00  0.04  0.00  0.94  0.03  0.00  0.00  0.08  0.00
  YS02001661YS02001658    1.00   0.04  0.00  0.00  0.92  0.05  0.00  0.00  0.08  0.00
  YS02001664YS02001661    1.00   0.03  0.00  0.00  0.92  0.04  0.00  0.00  0.19  0.00
  YSB1154YSB6556          1.00   0.03  0.00  0.00  0.97  0.00  0.00  0.00  0.01  0.00
  YSB1174YSB1171          1.00   0.02  0.01  0.00  0.97  0.00  0.00  0.00  0.00  0.00
  YSB1171HS02004479       1.00   0.01  0.00  0.00  0.98  0.00  0.00  0.00  0.10  0.00
  HS02004881HS02006253    1.00   0.02  0.00  0.00  0.76  0.02  0.00  0.21  0.58  0.00
  YS02001793JiankangQianchi    1.00   0.00  0.00  0.00  0.66  0.34  0.00  0.00  0.43  0.00
  YS02001757CaochengTiaoxuchi    1.00   0.00  0.06  0.00  0.94  0.00  0.00  0.00  0.00  0.00
  WSF200WS02003060        1.00   0.00  0.01  0.00  0.98  0.01  0.00  0.00  0.34  0.00
  1                       1.00   0.00  0.00  0.00  0.00  1.00  0.00  0.00  0.50  0.00
  
  
  *************************
  Conduit Surcharge Summary
  *************************
  
  ----------------------------------------------------------------------------
                                                           Hours        Hours 
                         --------- Hours Full --------   Above Full   Capacity
  Conduit                Both Ends  Upstream  Dnstream   Normal Flow   Limited
  ----------------------------------------------------------------------------
  WS02006229WS02006228        4.00      4.10      4.00      4.85         4.00
  WS02006256WS02006235        6.19      6.19      6.88      4.17         0.01
  WS02006253WS02006251        1.48      1.48      1.54      0.01         0.01
  WS02006252WS02006251        1.30      1.30      1.94      1.68         0.01
  WS02006251WS02006249        1.49      1.50      1.55      1.07         0.89
  WS02006249WS02006248        1.48      1.48      1.55      4.04         0.01
  WS02006248WS02006247        1.53      1.53      1.70      0.01         0.01
  WS02006247WS02006245        1.67      1.75      1.67      4.34         1.62
  WS02006245WS02006243        1.71      1.72      1.88      0.48         0.46
  WS02006243WS02006242        1.98      1.98      2.77      0.01         0.01
  WS02006242WS02006240        2.49      2.49      3.01      1.62         0.01
  WS02006240WS02006239        2.58      2.60      2.83      1.08         0.69
  WS02006239WS02006238        3.11      3.16      3.28      1.13         0.83
  WS02006238WS02006235        3.24      3.24      3.47      0.01         0.01
  WS02006235WS02006234        2.68      2.68      3.17      6.00         0.01
  WS02006234WS02006232        2.99      2.99      3.82      0.73         0.71
  WS02006232WS02006231        1.51      1.51      3.82      0.85         0.01
  WS02006231WS02006230        1.14      1.14      1.61      6.19         0.01
  WS02006230WS02006229        4.62      4.77      4.62      6.27         4.62
  WS02006228WS02006109        4.04      4.43      4.04      5.46         4.04
  WS02006116WS02004401        0.25      0.25      0.26      0.23         0.23
  WS02006115WS02006116        0.20      0.20      0.20      0.17         0.17
  WS02006112WS02006115        0.19      0.19      2.12      0.01         0.01
  WS02006111WS02006112        0.01      0.01      4.94      0.01         0.01
  WS02006110WS02006113        0.01      0.01      4.22      0.01         0.01
[...]
  YS02001765YS02001762        5.84      5.84      5.87      0.01         0.01
  YS02001770YS02001767        5.81      5.81      5.81      0.19         0.74
  YS02001774YS02001770        5.80      5.80      5.86      0.01         0.01
  YS02001779YS02001774        5.67      5.67      5.86      0.01         0.01
  YS02001649YS02001757        5.88      5.88      5.97      0.01         0.01
  YS02001767YS02001765        5.81      5.81      5.84      0.01         0.01
  YS02006561YS02001783        0.76      0.76      1.23      0.01         0.01
  YS02001783YS02001784        1.21      1.23      1.21      1.30         1.11
  YS02001784YS02001785        1.16      1.21      1.16      2.40         1.16
  YS02001788YS02001790        1.11      1.11      1.57      0.01         0.01
  YS02001790YS02001791        1.57      1.57      1.65      0.92         0.89
  YS02001791YS02001793        1.65      1.65      2.11      0.01         0.01
  YS02001910YS02001907        1.12      1.12      1.77      0.01         0.01
  YS02001786YS02001788        1.11      1.16      1.11      1.96         1.11
  YS02001915YS02001910        0.92      0.92      1.12      0.01         0.01
  YS02001918YS02001915        0.71      0.71      0.92      0.01         0.01
  YS02001923YS02001920        0.53      0.53      0.75      0.01         0.01
  YS02001920YS02001918        0.71      0.71      0.75      0.01         0.01
  YS02001629YS02163301        5.80      5.80      5.81      0.01         0.01
  YS02001619YS02001622        5.47      5.47      5.50      0.01         0.01
  YS02001622YS02001625        5.50      5.50      5.76      0.01         0.01
  YS02001625YS02001629        5.48      5.48      5.76      0.01         0.01
  YS02163301YS02001633        5.81      5.81      5.84      0.01         0.01
  YS02163601YS02164001        5.83      5.83      5.87      0.01         0.01
  YS02164001YS02001641        5.83      5.83      5.85      0.01         0.03
  YS02001641YS02001644        5.85      5.85      5.85      1.53         1.62
  YS02001647YS02001649        5.75      5.75      5.88      0.01         0.01
  YS02006553YS02006556        1.36      1.36      1.85      0.01         0.01
  YS02006556YS02006558        1.55      1.55      1.92      0.01         0.01
  YS02001907YS02006553        2.41      2.41      2.62      0.01         0.01
  YS02006558YS02006561        0.94      1.32      0.94      2.24         0.94
  YS02001633YS02163601        5.83      5.83      5.87      0.01         0.01
  YS02001644YS02001647        5.75      5.75      5.85      0.01         0.01
  YS02001745YS02001748        0.01      0.01      5.30      0.01         0.01
  YS02001748YS02001751        5.35      5.35      5.49      0.01         0.01
  YS02001751YS02001754        5.49      5.49      5.69      0.01         0.01
  YS02001754YS02001757        5.74      5.74      5.97      0.01         0.01
  YS02001882YS02001884        0.94      0.94      0.96      0.01         0.01
  YS02001884YS02001887        1.01      1.01      1.04      0.01         0.01
  YS02001890YS02001895        0.91      0.91      1.14      0.01         0.01
  YS02001895YS02001898        0.90      0.90      0.91      0.01         0.01
  YS02001898YS02001901        0.92      0.92      1.00      0.01         0.01
  YS02001901YS02001904        0.98      0.98      1.00      0.01         0.01
  YS02001904YS02001907        0.98      0.98      1.89      0.01         0.01
  YS02001887YS02001890        1.07      1.07      1.09      0.01         0.01
  YS02001652YS02001649        5.76      5.76      5.88      0.01         0.01
  YS02001655YS02001652        5.50      5.50      5.73      0.01         0.01
  YS02001658YS02001655        5.33      5.33      5.50      0.01         0.01
  YS02001661YS02001658        0.20      0.20      5.33      0.01         0.01
  YS02001664YS02001661        0.01      0.01      1.07      0.01         0.01
  HS02004881HS02006253        0.01      0.01      0.81      0.01         0.01
  YS02001793JiankangQianchi        1.98      1.98      4.11      0.01         0.01
  YS02001757CaochengTiaoxuchi        5.21      5.21      5.97      0.01         0.01
  
  
  ***************
  Pumping Summary
  ***************
  
  ---------------------------------------------------------------------------------------------------------
                                                  Min       Avg       Max     Total     Power    % Time Off
                        Percent   Number of      Flow      Flow      Flow    Volume     Usage    Pump Curve
  Pump                 Utilized   Start-Ups       LPS       LPS       LPS  10^6 ltr     Kw-hr    Low   High
  ---------------------------------------------------------------------------------------------------------
  CC-Pump-1               61.70           2      0.00    180.64    200.00     3.060      2.87    0.0    0.0
  CC-Pump-2               31.92           6      0.00    101.22    200.00     1.140      1.52    0.0    0.0
  JK-Pump-1               57.45           5      0.00    222.31    300.00     3.607     57.05    0.0    0.0
  JK-Pump-2               51.06           4      0.00    411.91    683.00     6.213     86.39    0.0   96.9
  XR-Pump-1               97.87           2      0.00     93.41     95.00     2.508     23.97    0.0    0.0
  XR-Pump-2               97.87           2      0.00     93.41     95.00     2.508     23.97    0.0    0.0
  XR-Pump-3               95.75           3      0.00     93.43     95.00     2.451     22.68    0.0    0.0
  XR-Pump-4               95.75           3      0.00     93.43     95.00     2.451     22.68    0.0    0.0
  
  
  ***************************
  Link Pollutant Load Summary
  ***************************
  
  ------------------------------------------------------------------------------------------
                                 COD            SS            TN            TP         NH4-N
  Link                            kg            kg            kg            kg            kg
  ------------------------------------------------------------------------------------------
  WS02003066WSF200           794.757      1461.643        21.138         1.855        11.158
  WS02006287WS02006284       268.064       498.218         9.347         0.943         5.214
  WS02006284WS02006280       268.549       498.999         9.394         0.949         5.244
  WS02006280WS02006229       268.515       498.934         9.392         0.949         5.243
  WS02006229WS02006228       807.783      1484.867        20.912         1.800        10.960
  WS02006256WS02006235       192.674       354.733         4.197         0.324         2.117
  WS02006253WS02006251        50.617        97.588         1.136         0.085         0.564
  WS02006252WS02006251       337.516       608.594         7.057         0.503         3.461
  WS02006251WS02006249       380.313       692.205         8.044         0.579         3.956
  WS02006249WS02006248       360.148       655.234         7.624         0.549         3.750
  WS02006248WS02006247       359.547       654.212         7.611         0.548         3.743
  WS02006247WS02006245       358.760       652.822         7.593         0.547         3.735
  WS02006245WS02006243       357.932       651.433         7.572         0.545         3.724
  WS02006243WS02006242       357.082       649.952         7.555         0.544         3.716
  WS02006242WS02006240       356.129       648.293         7.536         0.543         3.706
  WS02006240WS02006239       356.051       648.206         7.540         0.544         3.709
  WS02006239WS02006238       356.980       649.728         7.584         0.549         3.736
  WS02006238WS02006235       357.338       650.188         7.604         0.551         3.747
  WS02006235WS02006234       544.874       995.840        11.650         0.862         5.782
  WS02006234WS02006232       543.923       994.139        11.635         0.861         5.776
  WS02006232WS02006231       542.959       992.421        11.613         0.859         5.765
  WS02006231WS02006230       541.961       990.622        11.594         0.858         5.756
  WS02006230WS02006229       540.456       988.018        11.554         0.855         5.735
  WS02006228WS02006109       806.501      1482.608        20.882         1.798        10.944
  WS02006116WS02004401       814.396      1496.310        21.605         1.891        11.396
  WS02006115WS02006116       816.275      1499.604        21.654         1.895        11.421
  WS02006113WS02006111       811.236      1489.593        21.596         1.891        11.400
  WS02006112WS02006115       818.103      1502.809        21.708         1.900        11.450
  WS02006111WS02006112       810.458      1488.216        21.577         1.890        11.391
  WS02006110WS02006113       812.102      1491.116        21.622         1.894        11.415
  WS02006109WS02006110       813.657      1493.845        21.671         1.898        11.441
  WS02004411WS02004412       800.176      1471.149        21.308         1.871        11.251
  WS02004401WS02004402       812.579      1493.123        21.553         1.886        11.368
  WS02004413WS02003067       795.915      1463.688        21.168         1.857        11.175
  WS02004412WS02004413       798.144      1467.587        21.248         1.865        11.219
  WS02004410WS02004411       801.882      1474.144        21.356         1.875        11.277
  WS02004409WS02004410       803.576      1477.114        21.405         1.879        11.303
  WS02004407WS02004409       805.068      1479.732        21.444         1.882        11.323
  WS02004406WS02004407       805.587      1480.646        21.452         1.883        11.327
  WS02004405WS02004406       807.794      1484.507        21.524         1.890        11.366
  WS02004404WS02004405       809.494      1487.533        21.544         1.890        11.374
  WS02004403WS02004404       809.372      1487.498        21.463         1.879        11.321
  WS02004402WS02004403       810.868      1490.123        21.507         1.883        11.344
  WS02004139WS02001211      1398.877      2304.702       116.320        14.244        71.833
  WS02004138WS02004139      1405.445      2315.548       116.850        14.309        72.160
  WS02003067WS02003066       795.079      1462.212        21.148         1.856        11.164
  WS02001213WS02003059      1431.448      2356.080       119.664        14.666        73.933
  WS02001212WS02001213      1440.929      2371.646       120.459        14.764        74.425
  WS02001211WS02001212      1443.059      2375.112       120.645        14.786        74.540
  WS02003072WS02003073      2324.340      3973.439       150.708        17.767        91.303
  WS02003069WS02003072      2329.941      3982.699       151.131        17.818        91.563
  WS02003060WS02003069      2333.154      3988.217       151.295        17.836        91.659
  WS02003059WS02003060      1428.225      2350.700       119.421        14.637        73.785
  HS02004901HS02004770        10.270        19.477         0.195         0.015         0.091
  HS02004876HS02004881        37.319        72.581         0.843         0.062         0.416
  HS02004870HS02004876        28.161        54.629         0.678         0.051         0.338
  HS02004842HS02004848         5.467        10.276         0.115         0.008         0.053
  HS02004837HS02004842        10.072        17.582         0.584         0.067         0.347
  HS02004830HS02004837        65.640       112.705         4.557         0.546         2.785
  HS02004824HS02004830        66.390       113.908         4.628         0.555         2.830
  HS02004817HS02004824        88.208       156.978         5.083         0.584         3.051
  HS02004770HS02004777        39.296        75.466         0.819         0.055         0.377
  HS02004799HS02004480       131.412       245.374         3.680         0.335         1.933
  HS02004792HS02004799       119.087       220.665         3.497         0.327         1.853
  HS02004788HS02004792        68.397       126.858         2.388         0.235         1.309
  HS02004785HS02004788        40.733        77.761         0.969         0.074         0.471
  HS02004777HS02004785        40.059        76.667         0.909         0.067         0.434
  HS02004480HS02004478       165.955       312.599         4.244         0.375         2.196
  HS02004479HS02004480        38.147        72.978         0.884         0.079         0.462
  HS02004862HS02004870        21.016        40.118         0.536         0.043         0.270
  HS02004848HS02004852         8.057        15.280         0.167         0.011         0.077
  HS02004856HS02004862        14.072        27.341         0.284         0.019         0.133
  HS02004852HS02004856         8.064        15.291         0.167         0.011         0.077
  HS02004802HS02004478       102.890       186.895         5.163         0.576         3.055
  HS02004478WS02006287       268.261       498.550         9.364         0.945         5.225
  HS02004817HS02004807        86.891       154.866         4.957         0.568         2.973
  HS02004807HS02004802       103.116       187.248         5.195         0.580         3.075
  YS02001759YS02001757       322.743       586.108         6.497         0.450         3.176
  YS02001762YS02001759       161.731       294.957         3.449         0.243         1.708
  YS02001765YS02001762       161.926       295.768         3.473         0.245         1.723
  YS02001770YS02001767       161.783       297.024         3.276         0.216         1.590
  YS02001774YS02001770       191.452       367.173         3.709         0.245         1.793
  YS02001779YS02001774       190.588       365.416         3.801         0.259         1.857
  YS02001649YS02001757       317.070       567.292         6.353         0.440         3.046
  YS02001767YS02001765       162.689       297.590         3.503         0.247         1.739
  YS02006561YS02001783       939.393      1723.113        19.889         1.492         9.924
  YS02001783YS02001784       939.250      1722.880        19.884         1.491         9.922
  YS02001784YS02001785       946.550      1734.561        20.597         1.581        10.368
  YS02001788YS02001790       947.086      1735.413        20.668         1.590        10.413
  YS02001790YS02001791       947.586      1736.229        20.749         1.601        10.465
  YS02001791YS02001793       946.903      1735.156        20.720         1.598        10.448
  YS02001910YS02001907       330.021       599.045         8.225         0.641         4.249
  YS02001786YS02001788       946.710      1734.812        20.624         1.584        10.385
  YS02001915YS02001910       330.116       599.196         8.181         0.635         4.219
  YS02001918YS02001915       157.537       273.459         4.603         0.429         2.508
  YS02001923YS02001920       136.678       239.828         2.625         0.183         1.272
  YS02001926YS02001923       136.389       239.389         2.586         0.178         1.248
  YS02001929YS02001926       136.164       239.017         2.555         0.174         1.228
  YS02001920YS02001918       156.706       271.862         4.558         0.424         2.481
  YS02001629YS02163301       103.550       183.486         2.172         0.140         1.012
  YS02001619YS02001622       146.393       262.927         3.031         0.197         1.414
  YS02001622YS02001625       145.236       261.099         3.003         0.195         1.401
  YS02001625YS02001629       104.648       185.303         2.196         0.142         1.023
  YS02163301YS02001633       103.264       183.003         2.164         0.140         1.010
  YS02163601YS02164001       362.054       646.231         7.116         0.502         3.404
  YS02164001YS02001641       361.570       645.413         7.096         0.501         3.393
  YS02001641YS02001644       361.804       645.735         7.095         0.500         3.391
  YS02001647YS02001649       368.716       667.620         7.288         0.505         3.477
  YS02006553YS02006556       660.946      1206.841        14.292         1.099         7.206
  YS02006556YS02006558       660.899      1206.741        14.260         1.094         7.185
  YSB6556YSB1171              21.953        42.198         0.451         0.038         0.229
  YS02001907YS02006553       661.035      1207.033        14.305         1.100         7.215
  YS02006558YS02006561       939.383      1723.092        19.888         1.492         9.924
  YS02001633YS02163601       362.760       647.328         7.096         0.498         3.387
  YS02001644YS02001647       376.085       680.658         7.416         0.514         3.538
  YS02001745YS02001748       207.995       383.112         4.536         0.306         2.240
  YS02001748YS02001751       207.349       381.642         4.660         0.325         2.326
  YS02001751YS02001754       206.480       380.212         4.652         0.326         2.324
  YS02001754YS02001757       207.262       381.393         4.817         0.348         2.431
  YS02001882YS02001884         3.260         5.648         0.065         0.005         0.032
  YS02001884YS02001887         7.008        12.393         0.137         0.011         0.068
  YS02001890YS02001895       389.347       720.428         7.187         0.539         3.507
  YS02001895YS02001898       389.154       720.153         7.180         0.539         3.503
  YS02001898YS02001901       388.947       719.803         7.176         0.538         3.501
  YS02001901YS02001904       388.777       719.552         7.182         0.539         3.506
  YS02001904YS02001907       389.001       719.897         7.236         0.546         3.540
  YS02001887YS02001890       390.156       721.643         7.242         0.546         3.540
  YS02001652YS02001649       154.663       282.965         3.154         0.227         1.479
  YS02001655YS02001652       155.332       284.044         3.172         0.228         1.487
  YS02001658YS02001655       154.852       283.270         3.085         0.217         1.431
  YS02001661YS02001658       158.993       290.690         3.169         0.222         1.469
  YS02001664YS02001661       177.321       321.224         3.575         0.250         1.655
  YSB1154YSB6556              21.533        41.529         0.402         0.032         0.198
  YSB1174YSB1171              14.655        28.292         0.298         0.024         0.150
  YSB1171HS02004479           38.106        72.911         0.888         0.079         0.465
  HS02004881HS02006253        42.181        82.328         0.926         0.067         0.455
  YS02001793JiankangQianchi       946.814      1735.052        20.722         1.598        10.450
  YS02001757CaochengTiaoxuchi       586.842      1048.378        12.407         0.881         6.086
  WSF200WS02003060           794.391      1460.990        21.135         1.855        11.158
  1                         2329.231      3980.571       151.431        17.861        91.765
  CC-Pump-1                  246.608       444.884         5.152         0.368         2.527
  CC-Pump-2                   90.907       163.702         1.904         0.136         0.934
  JK-Pump-1                  233.556       433.727         4.908         0.371         2.451
  JK-Pump-2                  503.833       937.766        10.570         0.799         5.277
  XR-Pump-1                  357.772       589.181        29.814         3.652        18.415
  XR-Pump-2                  357.772       589.181        29.814         3.652        18.415
  XR-Pump-3                  346.868       571.734        28.775         3.523        17.766
  XR-Pump-4                  346.868       571.734        28.775         3.523        17.766
  

  Analysis begun on:  Fri Jul 16 09:20:13 2021
  Analysis ended on:  Fri Jul 16 09:20:17 2021
  Total elapsed time: 00:00:04