
  EPA STORM WATER MANAGEMENT MODEL - VERSION 5.1 (Build 5.3.0.dev0)
  --------------------------------------------------------------

  WARNING 04: minimum elevation drop used for Conduit WS02004404WS02004405
  WARNING 03: negative offset ignored for Link YS02001904YS02001907
  
  *********************************************************
  NOTE: The summary statistics displayed in this report are
  based on results found at every computational time step,  
  not just on results from each reporting time step.
  *********************************************************
  
  ****************
  Analysis Options
  ****************
  Flow Units ............... LPS
  Process Models:
    Rainfall/Runoff ........ YES
    RDII ................... NO
    Snowmelt ............... NO
    Groundwater ............ NO
    Flow Routing ........... YES
    Ponding Allowed ........ NO
    Water Quality .......... YES
  Infiltration Method ...... HORTON
  Flow Routing Method ...... DYNWAVE
  Surcharge Method ......... EXTRAN
  Starting Date ............ 08/28/2015 08:00:00
  Ending Date .............. 08/28/2015 15:50:00
  Antecedent Dry Days ...... 8.0
  Report Time Step ......... 00:01:00
  Wet Time Step ............ 00:01:00
  Dry Time Step ............ 00:01:00
  Routing Time Step ........ 5.00 sec
  Variable Time Step ....... YES
  Maximum Trials ........... 8
  Number of Threads ........ 4
  Head Tolerance ........... 0.001500 m
  
  
  **************************        Volume         Depth
  Runoff Quantity Continuity     hectare-m            mm
  **************************     ---------       -------
  Total Precipitation ......         5.556        12.164
  Evaporation Loss .........         0.000         0.000
  Infiltration Loss ........         1.002         2.194
  Surface Runoff ...........         3.688         8.075
  Final Storage ............         0.866         1.897
  Continuity Error (%) .....        -0.019
  
  
  **************************           COD            SS            TN            TP         NH4-N
  Runoff Quality Continuity             kg            kg            kg            kg            kg
  **************************    ----------    ----------    ----------    ----------    ----------
  Initial Buildup ..........     41378.656     70582.865      1804.177       168.684      1032.807
  Surface Buildup ..........        19.275        34.271         2.335         0.213         1.362
  Wet Deposition ...........         0.000         0.000         0.000         0.000         0.000
  Sweeping Removal .........         0.000         0.000         0.000         0.000         0.000
  Infiltration Loss ........        84.023       157.502         1.599         0.111         0.761
  BMP Removal ..............         0.000         0.000         0.000         0.000         0.000
  Surface Runoff ...........      3122.074      5752.154        60.620         4.098        28.771
  Remaining Buildup ........     38190.779     64705.500      1744.271       164.686      1004.628
  Continuity Error (%) .....         0.003         0.003         0.001         0.001         0.001
  
  
  **************************        Volume        Volume
  Flow Routing Continuity        hectare-m      10^6 ltr
  **************************     ---------     ---------
  Dry Weather Inflow .......         0.616         6.165
  Wet Weather Inflow .......         3.687        36.870
  Groundwater Inflow .......         0.000         0.000
  RDII Inflow ..............         0.000         0.000
  External Inflow ..........         0.102         1.024
  External Outflow .........         2.047        20.472
  Flooding Loss ............         1.947        19.467
  Evaporation Loss .........         0.000         0.000
  Exfiltration Loss ........         0.000         0.000
  Initial Stored Volume ....         0.076         0.761
  Final Stored Volume ......         0.623         6.231
  Continuity Error (%) .....        -3.011
  
  
  **************************           COD            SS            TN            TP         NH4-N
  Quality Routing Continuity            kg            kg            kg            kg            kg
  **************************    ----------    ----------    ----------    ----------    ----------
  Dry Weather Inflow .......      1541.201      2465.922       147.955        18.494        92.472
  Wet Weather Inflow .......      3121.335      5750.919        60.604         4.097        28.763
  Groundwater Inflow .......         0.000         0.000         0.000         0.000         0.000
  RDII Inflow ..............         0.000         0.000         0.000         0.000         0.000
  External Inflow ..........       183.418       293.469        17.608         2.201        11.005
  External Outflow .........      2367.481      4052.342       151.314        17.789        91.552
  Flooding Loss ............      1794.027      3291.507        47.761         4.238        25.304
  Exfiltration Loss ........         0.000         0.000         0.000         0.000         0.000
  Mass Reacted .............         0.000         0.000         0.000         0.000         0.000
  Initial Stored Mass ......         0.000         0.000         0.000         0.000         0.000
  Final Stored Mass ........       510.468       866.646        22.973         2.448        13.309
  Continuity Error (%) .....         3.590         3.523         1.822         1.282         1.570
  
  
  *************************
  Highest Continuity Errors
  *************************
  Node HS02004842 (14.53%)
  Node JK-storage (-13.41%)
  Node YS02001884 (11.17%)
  Node YSB1171 (2.74%)
  Node HS02004817 (2.73%)
  
  
  ***************************
  Time-Step Critical Elements
  ***************************
  Link WS02006252WS02006251 (67.95%)
  Link WS02006280WS02006229 (9.17%)
  Link WS02006238WS02006235 (5.64%)
  Link YS02001793JiankangQianchi (5.52%)
  Link WS02004404WS02004405 (2.49%)
  
  
  ********************************
  Highest Flow Instability Indexes
  ********************************
  Link WS02006113WS02006111 (41)
  Link YS02163601YS02164001 (39)
  Link YS02001619YS02001622 (39)
  Link YS02001629YS02163301 (39)
  Link YS02163301YS02001633 (38)
  
  
  *************************
  Routing Time Step Summary
  *************************
  Minimum Time Step           :     0.50 sec
  Average Time Step           :     1.07 sec
  Maximum Time Step           :     5.00 sec
  Percent in Steady State     :    -0.00
  Average Iterations per Step :     4.51
  Percent Not Converging      :    22.02
  
  
  ***************************
  Subcatchment Runoff Summary
  ***************************
  
  ------------------------------------------------------------------------------------------------------------------------------
                            Total      Total      Total      Total     Imperv       Perv      Total       Total     Peak  Runoff
                           Precip      Runon       Evap      Infil     Runoff     Runoff     Runoff      Runoff   Runoff   Coeff
  Subcatchment                 mm         mm         mm         mm         mm         mm         mm    10^6 ltr      LPS
  ------------------------------------------------------------------------------------------------------------------------------
  sub0                      12.16       0.00       0.00       0.65      11.27       0.20      11.47        0.01     1.99   0.943
  sub1                      12.16       0.00       0.00       1.12      10.73       0.22      10.95        0.07    14.96   0.900
  sub2                      12.16       0.00       0.00       4.23       7.58       0.27       7.85        0.07    15.08   0.646
  sub3                      12.16       0.00       0.00       4.29       7.54       0.21       7.75        0.17    34.61   0.637
  sub4                      12.16       0.00       0.00       1.19      10.57       0.14      10.71        0.22    42.34   0.881
  sub5                      12.16       0.00       0.00       0.69      11.21       0.16      11.38        0.13    26.18   0.935
  sub7                      12.16       0.00       0.00       0.88      11.01       0.22      11.22        0.04     7.95   0.923
  sub8                      12.16       0.00       0.00       0.89      11.00       0.21      11.20        0.07    14.89   0.921
  sub9                      12.16       0.00       0.00       0.89      10.99       0.21      11.20        0.05    11.18   0.921
  sub10                     12.16       0.00       0.00       0.79      11.10       0.18      11.28        0.12    25.49   0.928
  sub11                     12.16       0.00       0.00       0.78      11.12       0.19      11.31        0.13    27.35   0.930
  sub12                     12.16       0.00       0.00       1.27      10.53       0.31      10.85        0.09    20.52   0.892
  sub14                     12.16       0.00       0.00       0.89      10.99       0.20      11.20        0.11    22.08   0.920
  sub15                     12.16       0.00       0.00       3.28       8.45       0.37       8.82        0.15    32.49   0.725
  sub16                     12.16       0.00       0.00       3.51       8.11       0.50       8.61        0.09    20.36   0.708
  sub17                     12.16       0.00       0.00       3.41       8.23       0.48       8.71        0.07    16.72   0.716
  sub22                     12.16       0.00       0.00       4.80       6.89       0.43       7.32        0.46   102.62   0.602
  sub23                     12.16       0.00       0.00       4.05       7.62       0.45       8.07        0.38    85.35   0.663
  sub60                     12.16       0.00       0.00       1.42       8.82       0.04       8.86        2.69   336.84   0.729
  sub61                     12.16       0.00       0.00       2.01       8.94       0.06       9.00        2.78   399.45   0.740
  sub62                     12.16       0.00       0.00       0.92       9.73       0.05       9.78        3.01   415.79   0.804
  sub63                     12.16       0.00       0.00       3.46       7.82       0.06       7.88        2.39   361.21   0.648
  sub64                     12.16       0.00       0.00       1.78       8.47       0.04       8.51        2.59   320.97   0.699
  sub65                     12.16       0.00       0.00       1.54       8.61       0.04       8.65        2.66   326.54   0.711
  sub66                     12.16       0.00       0.00       3.49       7.26       0.04       7.30        2.24   290.53   0.600
  sub67                     12.16       0.00       0.00       0.91      10.24       0.07      10.31        3.18   494.23   0.848
  sub68                     12.16       0.00       0.00       1.64       9.40       0.06       9.46        2.91   432.52   0.778
  sub69                     12.16       0.00       0.00       1.73       9.72       0.09       9.82        2.29   383.95   0.807
  sub70                     12.16      10.02       0.00       6.98      13.09       0.56      13.65        3.12   394.93   0.615
  sub71                     12.16       0.00       0.00       0.93       9.48       0.05       9.53        2.25   296.34   0.783
  sub72                     12.16       0.00       0.00       0.83       7.62       0.02       7.64        1.56   151.13   0.628
  1                         12.16      13.29       0.00       1.37      14.64       3.94      18.57        4.36   399.24   0.730
  2                         12.16       0.00       0.00       3.02       2.89       1.65       4.55        1.82   245.52   0.374
  
  
  ****************************
  Subcatchment Washoff Summary
  ****************************
  
  ------------------------------------------------------------------------------------------
                                 COD            SS            TN            TP         NH4-N
  Subcatchment                    kg            kg            kg            kg            kg
  ------------------------------------------------------------------------------------------
  sub0                         2.176         4.147         0.037         0.003         0.018
  sub1                         9.268        18.138         0.173         0.012         0.083
  sub2                         5.563        10.570         0.119         0.008         0.054
  sub3                        13.747        25.918         0.288         0.019         0.132
  sub4                        21.530        42.606         0.429         0.026         0.205
  sub5                        21.300        41.103         0.378         0.029         0.183
  sub7                         4.748         9.424         0.090         0.006         0.043
  sub8                         7.142        14.500         0.143         0.008         0.069
  sub9                         6.100        12.212         0.118         0.007         0.057
  sub10                       17.532        34.266         0.321         0.023         0.155
  sub11                       17.086        33.770         0.320         0.022         0.154
  sub12                       14.392        27.890         0.260         0.019         0.125
  sub14                       13.021        25.823         0.247         0.016         0.119
  sub15                       16.182        30.744         0.313         0.023         0.146
  sub16                       10.318        19.555         0.197         0.015         0.092
  sub17                        9.471        17.789         0.175         0.014         0.082
  sub22                       48.821        90.813         0.932         0.070         0.434
  sub23                       29.138        56.181         0.627         0.041         0.287
  sub60                      203.703       376.194         4.083         0.248         1.956
  sub61                      251.300       461.579         4.699         0.320         2.261
  sub62                      262.762       491.326         5.157         0.324         2.474
  sub63                      185.047       334.594         3.739         0.261         1.731
  sub64                      253.867       452.095         4.687         0.339         2.235
  sub65                      260.106       465.192         4.834         0.344         2.309
  sub66                      146.558       263.078         3.037         0.197         1.417
  sub67                      388.205       718.566         6.963         0.510         3.363
  sub68                      276.714       513.393         5.318         0.356         2.539
  sub69                      247.676       464.012         4.658         0.325         2.225
  sub70                      413.256       778.342         8.287         0.572         3.877
  sub71                      173.740       327.842         3.597         0.206         1.720
  sub72                      136.329       239.316         2.558         0.174         1.230
  1                          280.724       531.718         5.751         0.398         2.660
  2                           35.485        61.812         1.030         0.062         0.437
  ------------------------------------------------------------------------------------------
  System                    3783.006      6994.507        73.566         4.996        34.873
  
  
  ******************
  Node Depth Summary
  ******************
  
  ---------------------------------------------------------------------------------
                                 Average  Maximum  Maximum  Time of Max    Reported
                                   Depth    Depth      HGL   Occurrence   Max Depth
  Node                 Type       Meters   Meters   Meters  days hr:min      Meters
  ---------------------------------------------------------------------------------
  WS02001211           JUNCTION     0.77     0.83     5.67     0  03:09        0.83
  WS02001212           JUNCTION     0.48     0.55     5.62     0  03:08        0.55
  WS02001213           JUNCTION     0.73     0.83     5.59     0  03:08        0.83
  WS02003069           JUNCTION     0.53     0.68     5.27     0  03:07        0.68
  WS02003072           JUNCTION     0.59     0.73     5.10     0  03:07        0.73
  WS02003073           JUNCTION     0.36     0.46     4.52     0  03:08        0.46
  WS02003060           JUNCTION     0.47     0.60     5.53     0  03:06        0.60
  WS02003066           JUNCTION     0.26     0.36     5.92     0  03:05        0.36
  WS02003059           JUNCTION     0.78     0.88     5.57     0  03:07        0.88
  WS02003067           JUNCTION     0.63     0.79     6.11     0  03:05        0.79
  WS02004401           JUNCTION     0.76     1.14     7.14     0  03:03        1.14
  WS02004402           JUNCTION     0.79     1.14     7.10     0  03:03        1.13
  WS02004403           JUNCTION     0.80     1.13     7.06     0  03:03        1.12
  WS02004404           JUNCTION     0.88     1.18     7.03     0  03:03        1.17
  WS02004406           JUNCTION     0.88     1.12     6.95     0  03:03        1.12
  WS02004409           JUNCTION     0.57     0.87     6.64     0  03:04        0.87
  WS02004410           JUNCTION     0.59     0.87     6.59     0  03:04        0.87
  WS02004411           JUNCTION     0.60     0.86     6.54     0  03:04        0.86
  WS02004412           JUNCTION     0.62     0.85     6.49     0  03:04        0.85
  WS02004413           JUNCTION     0.77     0.98     6.45     0  03:05        0.98
  WS02004405           JUNCTION     0.87     1.16     7.01     0  03:02        1.15
  WS02006109           JUNCTION     0.85     1.31     7.93     0  03:02        1.30
  WS02006110           JUNCTION     0.82     1.15     7.73     0  03:02        1.14
  WS02006111           JUNCTION     0.26     0.65     7.36     0  03:03        0.65
  WS02006112           JUNCTION     0.94     1.42     7.30     0  03:03        1.41
  WS02006113           JUNCTION     0.39     0.65     7.54     0  03:02        0.65
  WS02006115           JUNCTION     0.66     1.09     7.23     0  03:03        1.09
  WS02006116           JUNCTION     0.74     1.15     7.19     0  03:03        1.14
  WS02006230           JUNCTION     0.88     1.52     8.27     0  03:02        1.51
  WS02006231           JUNCTION     0.62     1.22     8.34     0  03:02        1.21
  WS02006232           JUNCTION     0.77     1.36     8.40     0  03:03        1.35
  WS02006234           JUNCTION     0.72     1.32     8.48     0  03:02        1.31
  WS02006235           JUNCTION     0.76     1.37     8.53     0  03:01        1.35
  WS02006238           JUNCTION     0.79     1.40     8.54     0  03:02        1.39
  WS02006240           JUNCTION     0.70     1.28     8.57     0  03:02        1.27
  WS02006242           JUNCTION     0.76     1.33     8.60     0  03:01        1.33
  WS02006243           JUNCTION     0.65     1.21     8.63     0  03:03        1.20
  WS02006245           JUNCTION     0.63     1.17     8.65     0  03:00        1.16
  WS02006247           JUNCTION     0.64     1.17     8.67     0  03:01        1.16
  WS02006248           JUNCTION     0.58     1.10     8.68     0  03:03        1.09
  WS02006249           JUNCTION     0.60     1.09     8.69     0  02:59        1.09
  WS02006239           JUNCTION     0.75     1.35     8.55     0  03:02        1.34
  WS02006251           JUNCTION     0.58     1.24     8.91     0  04:59        1.17
  WS02006252           JUNCTION     0.36     0.79     9.03     0  04:59        0.71
  WS02006253           JUNCTION     0.61     1.29     8.94     0  06:48        1.21
  WS02006256           JUNCTION     1.73     2.35     9.28     0  00:00        2.35
  WS02004138           JUNCTION     0.19     0.20     7.45     0  00:00        0.19
  WS02004139           JUNCTION     0.72     0.77     5.68     0  03:09        0.77
  WS02004407           JUNCTION     0.26     0.37     6.68     0  03:03        0.37
  WS02006228           JUNCTION     0.87     1.44     8.10     0  03:02        1.44
  WS02006229           JUNCTION     0.86     1.49     8.18     0  03:02        1.48
  WS02006280           JUNCTION     0.07     0.20     8.47     0  03:02        0.20
  WS02006284           JUNCTION     0.37     0.56     8.96     0  03:02        0.56
  WS02006287           JUNCTION     0.09     0.30     9.25     0  03:01        0.30
  WSF200               JUNCTION     0.26     0.40     5.64     0  03:05        0.40
  HS02004901           JUNCTION     0.12     0.29    10.12     0  03:01        0.29
  HS02004881           JUNCTION     0.01     0.04     9.07     0  03:01        0.04
  HS02004876           JUNCTION     0.04     0.12     9.15     0  03:01        0.12
  HS02004870           JUNCTION     0.01     0.07     9.35     0  03:01        0.07
  HS02004862           JUNCTION     0.02     0.08     9.46     0  03:01        0.08
  HS02004856           JUNCTION     0.08     0.13     9.55     0  03:01        0.13
  HS02004852           JUNCTION     0.01     0.05     9.56     0  03:01        0.05
  HS02004848           JUNCTION     0.01     0.05     9.65     0  03:01        0.05
  HS02004842           JUNCTION     0.33     0.38     9.65     0  03:01        0.38
  HS02004837           JUNCTION     0.03     0.07     9.65     0  03:01        0.07
  HS02004830           JUNCTION     0.04     0.08     9.55     0  03:01        0.08
  HS02004824           JUNCTION     0.02     0.06     9.47     0  03:01        0.06
  HS02004817           JUNCTION     0.44     0.61     9.45     0  03:01        0.61
  HS02004807           JUNCTION     0.12     0.28     9.45     0  03:01        0.28
  HS02004802           JUNCTION     0.16     0.31     9.44     0  03:01        0.31
  HS02004799           JUNCTION     0.12     0.35     9.56     0  03:01        0.35
  HS02004792           JUNCTION     0.03     0.15     9.67     0  03:01        0.15
  HS02004788           JUNCTION     0.02     0.11    10.01     0  03:01        0.11
  HS02004785           JUNCTION     0.04     0.18    10.09     0  03:01        0.18
  HS02004777           JUNCTION     0.15     0.31    10.11     0  03:01        0.31
  HS02004770           JUNCTION     0.12     0.29    10.12     0  03:01        0.29
  HS02004480           JUNCTION     0.08     0.28     9.52     0  03:01        0.28
  HS02004479           JUNCTION     0.11     0.32     9.52     0  03:01        0.32
  HS02004478           JUNCTION     0.06     0.20     9.42     0  03:01        0.20
  YS02001745           JUNCTION     0.73     0.92     8.44     0  03:01        0.92
  YS02001748           JUNCTION     1.14     1.45     8.52     0  02:28        1.35
  YS02001751           JUNCTION     1.32     1.56     8.44     0  02:59        1.54
  YS02001754           JUNCTION     1.58     1.83     8.44     0  02:57        1.81
  YS02001762           JUNCTION     1.78     2.04     8.44     0  02:58        2.02
  YS02001765           JUNCTION     1.73     1.99     8.44     0  02:56        1.96
  YS02001767           JUNCTION     1.69     1.94     8.43     0  02:56        1.92
  YS02001770           JUNCTION     1.69     1.94     8.43     0  02:18        1.91
  YS02001774           JUNCTION     1.76     2.01     8.43     0  02:18        1.97
  YS02001779           JUNCTION     1.50     1.68     8.37     0  02:18        1.68
  YS02001882           JUNCTION     0.52     1.62     8.34     0  03:00        1.61
  YS02001884           JUNCTION     0.62     1.72     8.34     0  03:00        1.71
  YS02001759           JUNCTION     1.81     2.08     8.44     0  02:58        2.05
  YS02001887           JUNCTION     0.69     1.80     8.33     0  02:58        1.79
  YS02001890           JUNCTION     0.72     1.81     8.32     0  02:58        1.81
  YS02001898           JUNCTION     0.49     1.56     8.29     0  02:56        1.55
  YS02001901           JUNCTION     0.61     1.67     8.28     0  03:01        1.67
  YS02001904           JUNCTION     0.59     1.64     8.27     0  03:00        1.63
  YS02001907           JUNCTION     0.92     1.96     8.25     0  02:47        1.96
  YS02001910           JUNCTION     0.71     1.77     8.28     0  02:48        1.77
  YS02001915           JUNCTION     0.51     1.57     8.29     0  02:48        1.56
  YS02001918           JUNCTION     0.26     1.24     8.30     0  02:48        1.23
  YS02001619           JUNCTION     1.29     1.51     8.44     0  02:29        1.47
  YS02001629           JUNCTION     1.64     1.85     8.40     0  02:29        1.84
  YS02001641           JUNCTION     1.74     1.94     8.37     0  02:57        1.93
  YS02001644           JUNCTION     1.74     1.92     8.35     0  02:35        1.92
  YS02001652           JUNCTION     1.59     2.16     8.76     0  02:46        1.91
  YS02001655           JUNCTION     1.35     2.20     9.05     0  02:19        1.75
  YS02001920           JUNCTION     0.36     1.31     8.31     0  02:48        1.30
  YS02001923           JUNCTION     0.20     1.06     8.32     0  02:48        1.05
  YS02001926           JUNCTION     0.27     0.88     8.32     0  02:47        0.88
  YS02001929           JUNCTION     0.15     0.64     8.33     0  02:48        0.64
  YS02001658           JUNCTION     1.08     2.24     9.38     0  02:46        1.61
  YS02001661           JUNCTION     0.84     2.46     9.86     0  02:46        1.58
  YS02001664           JUNCTION     0.37     0.57     8.50     0  04:17        0.57
  YS02001622           JUNCTION     1.31     1.52     8.43     0  02:29        1.50
  YS02001633           JUNCTION     1.73     1.95     8.40     0  02:58        1.94
  YS02001649           JUNCTION     1.79     2.05     8.44     0  02:41        2.05
  YS02001757           JUNCTION     1.91     2.18     8.44     0  02:59        2.16
  YS02001895           JUNCTION     0.48     1.56     8.31     0  02:59        1.55
  YS02001625           JUNCTION     1.59     1.78     8.38     0  02:29        1.78
  YS02163301           JUNCTION     1.67     1.88     8.40     0  03:00        1.88
  YS02163601           JUNCTION     1.78     1.99     8.39     0  02:48        1.98
  YS02164001           JUNCTION     1.72     1.92     8.38     0  06:54        1.91
  YS02001647           JUNCTION     1.57     1.80     8.41     0  04:00        1.79
  YSB1154              JUNCTION     0.26     0.47     9.52     0  03:01        0.47
  YSB6556              JUNCTION     0.15     0.35     9.52     0  03:01        0.35
  YSB1174              JUNCTION     0.21     0.41     9.52     0  03:01        0.41
  YSB1171              JUNCTION     0.41     0.62     9.52     0  03:01        0.62
  YS02006553           JUNCTION     0.92     1.96     8.25     0  02:56        1.96
  YS02006561           JUNCTION     0.29     1.06     7.72     0  03:00        1.06
  YS02006556           JUNCTION     0.89     1.92     8.23     0  03:01        1.91
  YS02006558           JUNCTION     0.93     1.96     8.23     0  03:00        1.96
  YS02001783           JUNCTION     0.50     1.59     7.73     0  02:26        1.44
  YS02001784           JUNCTION     0.52     1.49     7.55     0  02:26        1.38
  YS02001786           JUNCTION     0.46     1.38     7.41     0  02:26        1.22
  YS02001788           JUNCTION     0.38     1.28     7.26     0  02:26        1.08
  YS02001790           JUNCTION     0.49     1.80     7.44     0  06:10        1.24
  YS02001791           JUNCTION     0.45     2.03     7.50     0  06:07        1.24
  YS02001793           JUNCTION     0.61     2.05     6.89     0  06:04        1.80
  WSC                  OUTFALL      0.36     0.46     1.13     0  03:08        0.46
  JK-storage           STORAGE      2.58     5.80     6.60     0  02:26        5.80
  CC-storage           STORAGE      1.17     1.40     8.40     0  03:03        1.40
  XR-storage           STORAGE      6.68     7.72     5.72     0  02:50        7.72
  
  
  *******************
  Node Inflow Summary
  *******************
  
  -------------------------------------------------------------------------------------------------
                                  Maximum  Maximum                  Lateral       Total        Flow
                                  Lateral    Total  Time of Max      Inflow      Inflow     Balance
                                   Inflow   Inflow   Occurrence      Volume      Volume       Error
  Node                 Type           LPS      LPS  days hr:min    10^6 ltr    10^6 ltr     Percent
  -------------------------------------------------------------------------------------------------
  WS02001211           JUNCTION      7.35   389.65     0  04:30       0.207        9.97       0.403
  WS02001212           JUNCTION      0.00   391.96     0  04:30           0        9.93       0.232
  WS02001213           JUNCTION      0.00   394.24     0  04:30           0        9.91       0.290
  WS02003069           JUNCTION      0.32  1220.52     0  03:07     0.00902        20.5       0.158
  WS02003072           JUNCTION      0.00  1220.50     0  03:07           0        20.5       0.193
  WS02003073           JUNCTION      1.82  1222.46     0  03:08      0.0514        20.5       0.220
  WS02003060           JUNCTION     16.53  1220.12     0  03:06       0.466        20.6       0.149
  WS02003066           JUNCTION      0.00   828.97     0  03:05           0        10.3       0.039
  WS02003059           JUNCTION      0.00   398.02     0  04:30           0        9.88       0.397
  WS02003067           JUNCTION      0.00   828.64     0  03:05           0        10.3       0.083
  WS02004401           JUNCTION      0.00   832.13     0  03:03           0        10.5       0.184
  WS02004402           JUNCTION      0.00   832.57     0  03:03           0        10.5       0.175
  WS02004403           JUNCTION      0.00   831.92     0  03:03           0        10.4       0.161
  WS02004404           JUNCTION      0.16   832.34     0  03:03     0.00457        10.4       0.122
  WS02004406           JUNCTION      0.00   831.85     0  03:03           0        10.4       0.301
  WS02004409           JUNCTION      0.00   831.26     0  03:03           0        10.4       0.134
  WS02004410           JUNCTION      0.00   829.70     0  03:04           0        10.3       0.155
  WS02004411           JUNCTION      0.00   828.90     0  03:04           0        10.3       0.161
  WS02004412           JUNCTION      0.00   828.59     0  03:04           0        10.3       0.177
  WS02004413           JUNCTION      0.00   828.55     0  03:05           0        10.3       0.268
  WS02004405           JUNCTION      0.04   832.87     0  03:03     0.00107        10.4       0.184
  WS02006109           JUNCTION      1.23   818.63     0  03:02      0.0347        10.5       0.177
  WS02006110           JUNCTION      0.00   818.62     0  03:02           0        10.5       0.161
  WS02006111           JUNCTION      0.00   818.08     0  03:03           0        10.5       0.035
  WS02006112           JUNCTION     16.72   831.27     0  03:03      0.0747        10.5       0.270
  WS02006113           JUNCTION      0.00   818.64     0  03:02           0        10.5       0.077
  WS02006115           JUNCTION      0.00   831.40     0  03:03           0        10.5       0.169
  WS02006116           JUNCTION      0.00   831.87     0  03:03           0        10.5       0.144
  WS02006230           JUNCTION     10.28   532.68     0  06:53        0.29        8.35       0.157
  WS02006231           JUNCTION      0.00   522.67     0  06:52           0        8.07       0.093
  WS02006232           JUNCTION      0.00   522.67     0  06:53           0        8.08       0.186
  WS02006234           JUNCTION      0.00   522.86     0  06:52           0        8.09       0.076
  WS02006235           JUNCTION      0.00   523.59     0  06:51           0        8.17       0.112
  WS02006238           JUNCTION      0.00   414.64     0  07:20           0        4.91       0.114
  WS02006240           JUNCTION      0.00   413.91     0  07:20           0        4.86       0.206
  WS02006242           JUNCTION      0.00   414.28     0  07:20           0        4.85       0.255
  WS02006243           JUNCTION      0.00   414.06     0  07:20           0        4.83       0.128
  WS02006245           JUNCTION      0.00   414.40     0  07:20           0        4.84       0.204
  WS02006247           JUNCTION      0.00   415.03     0  07:20           0        4.84       0.134
  WS02006248           JUNCTION      0.00   414.25     0  07:20           0        4.84       0.082
  WS02006249           JUNCTION      0.00   447.16     0  03:10           0        5.15       0.183
  WS02006239           JUNCTION      0.00   414.22     0  07:20           0        4.89       0.109
  WS02006251           JUNCTION      0.08   446.92     0  03:10     0.00217        5.22       0.165
  WS02006252           JUNCTION      0.00   400.00     0  04:00           0        4.74       0.010
  WS02006253           JUNCTION      1.99   111.70     0  06:31     0.00928       0.485       0.728
  WS02006256           JUNCTION      0.00   983.00     0  02:00           0        10.1      -0.003
  WS02004138           JUNCTION      0.00   380.00     0  00:00           0         9.8       0.061
  WS02004139           JUNCTION      0.32   395.85     0  00:00     0.00905        9.81       0.464
  WS02004407           JUNCTION      0.00   831.78     0  03:03           0        10.4       0.060
  WS02006228           JUNCTION      0.00   817.67     0  03:02           0        10.5       0.134
  WS02006229           JUNCTION      0.00   818.09     0  03:02           0        10.5       0.122
  WS02006280           JUNCTION      0.00   413.65     0  03:02           0        2.17       0.007
  WS02006284           JUNCTION      0.10   413.60     0  03:02      0.0027        2.17       0.042
  WS02006287           JUNCTION      0.00   413.26     0  03:01           0        2.17       0.033
  WSF200               JUNCTION      0.00   829.07     0  03:05           0        10.3       0.035
  HS02004901           JUNCTION     20.36    20.36     0  03:01      0.0902      0.0904       1.990
  HS02004881           JUNCTION      7.95    84.19     0  03:01      0.0378        0.41       0.110
  HS02004876           JUNCTION     14.96    76.76     0  03:01      0.0728       0.373       0.148
  HS02004870           JUNCTION     14.89    62.15     0  03:01      0.0716         0.3       0.037
  HS02004862           JUNCTION     15.28    47.68     0  03:01      0.0788       0.229       0.076
  HS02004856           JUNCTION     11.18    32.72     0  03:01      0.0539       0.152       0.960
  HS02004852           JUNCTION      0.00    21.94     0  03:01           0      0.0979       0.059
  HS02004848           JUNCTION     34.61    34.61     0  03:01       0.174       0.174       0.028
  HS02004842           JUNCTION      0.00    12.41     0  03:01           0      0.0895      16.998
  HS02004837           JUNCTION     31.84    43.95     0  03:01       0.303        0.38       0.214
  HS02004830           JUNCTION      0.15    43.86     0  03:01     0.00423        0.37       0.335
  HS02004824           JUNCTION     42.39    85.90     0  03:01       0.225       0.594       0.091
  HS02004817           JUNCTION      0.60    86.29     0  03:01      0.0169        0.61       2.809
  HS02004807           JUNCTION     27.35   112.32     0  03:01       0.131       0.726       0.605
  HS02004802           JUNCTION      0.00   111.37     0  03:01           0       0.723       0.548
  HS02004799           JUNCTION     22.08   258.94     0  03:01       0.107        1.24       0.223
  HS02004792           JUNCTION    102.90   237.98     0  03:01        0.47        1.14       0.036
  HS02004788           JUNCTION     34.16   135.95     0  03:01       0.199       0.669       0.059
  HS02004785           JUNCTION      0.15   103.53     0  03:01     0.00423       0.471       0.106
  HS02004777           JUNCTION      0.03   104.16     0  03:01    0.000846       0.472       1.115
  HS02004770           JUNCTION     85.35   105.11     0  03:01       0.385       0.473       0.659
  HS02004480           JUNCTION      0.00   302.47     0  03:01           0        1.46       0.076
  HS02004479           JUNCTION      0.00    44.91     0  03:02           0       0.232       0.317
  HS02004478           JUNCTION      0.00   413.12     0  03:01           0        2.17       0.014
  YS02001745           JUNCTION    336.84   345.19     0  02:27        2.69        2.69       0.385
  YS02001748           JUNCTION      0.04   512.57     0  02:27     0.00127        2.68       0.803
  YS02001751           JUNCTION      0.01   349.48     0  02:17     0.00031        2.66       0.913
  YS02001754           JUNCTION      0.26   343.83     0  03:01     0.00733        2.64       0.946
  YS02001762           JUNCTION      0.00   290.60     0  02:38           0        1.92       1.116
  YS02001765           JUNCTION      0.00   289.97     0  02:38           0        1.92       1.290
  YS02001767           JUNCTION      0.54   289.54     0  02:38      0.0151        1.94       1.857
  YS02001770           JUNCTION    415.94   564.80     0  03:01        3.01        3.28       0.964
  YS02001774           JUNCTION      0.00   565.86     0  03:01           0        1.58       1.602
  YS02001779           JUNCTION      0.01   564.79     0  03:01    0.000141        1.55       0.992
  YS02001882           JUNCTION      0.00    26.96     0  02:28           0      0.0187      14.333
  YS02001884           JUNCTION      0.00    53.31     0  02:28           0      0.0555      12.573
  YS02001759           JUNCTION    399.49   570.75     0  02:39        2.78         4.4       0.522
  YS02001887           JUNCTION    494.68   495.16     0  03:01        3.19        3.22       0.269
  YS02001890           JUNCTION      0.00   495.13     0  03:01           0        3.18       0.300
  YS02001898           JUNCTION      0.00   495.91     0  03:01           0        3.16       0.097
  YS02001901           JUNCTION      0.00   495.37     0  03:01           0        3.16       0.230
  YS02001904           JUNCTION      0.00   496.26     0  03:01           0        3.16       0.205
  YS02001907           JUNCTION      0.00   949.88     0  03:01           0        7.02       0.342
  YS02001910           JUNCTION      0.00   455.78     0  03:01           0        3.87       0.309
  YS02001915           JUNCTION    296.36   455.38     0  03:01        2.25        3.89       0.161
  YS02001918           JUNCTION      0.00   208.49     0  03:31           0        1.64       0.122
  YS02001619           JUNCTION    290.53   290.53     0  03:01        2.24        2.24       0.554
  YS02001629           JUNCTION      0.00   213.15     0  02:17           0        1.69       1.735
  YS02001641           JUNCTION      0.00   396.33     0  02:35           0        4.25       0.497
  YS02001644           JUNCTION    321.01  1354.77     0  03:01        2.59        9.39       0.275
  YS02001652           JUNCTION      0.00   380.51     0  03:01           0        2.35       1.006
  YS02001655           JUNCTION      0.15   391.06     0  02:19     0.00434        2.37       1.049
  YS02001920           JUNCTION      2.87   193.14     0  03:29      0.0809        1.64       0.184
  YS02001923           JUNCTION      0.04   173.84     0  02:49     0.00106        1.55       0.058
  YS02001926           JUNCTION      0.05   157.18     0  03:01     0.00147        1.56       0.209
  YS02001929           JUNCTION    151.13   151.13     0  03:01        1.56        1.56       0.037
  YS02001658           JUNCTION      0.00   597.77     0  02:23           0        2.41       0.896
  YS02001661           JUNCTION      0.00   618.32     0  02:46           0        2.83      -0.380
  YS02001664           JUNCTION    361.21   361.21     0  03:01        2.38        2.81       0.206
  YS02001622           JUNCTION      0.00   291.12     0  03:01           0        2.22       1.445
  YS02001633           JUNCTION    326.74   398.01     0  02:35        2.66        4.31       0.746
  YS02001649           JUNCTION      0.00   823.21     0  02:35           0        5.52       0.678
  YS02001757           JUNCTION      0.00  1580.78     0  02:35           0         9.6       0.966
  YS02001895           JUNCTION      0.00   495.11     0  03:01           0        3.17       0.167
  YS02001625           JUNCTION      0.00   290.70     0  03:01           0        2.19       1.802
  YS02163301           JUNCTION      0.00   197.92     0  02:30           0        1.67       1.464
  YS02163601           JUNCTION      0.11   397.56     0  02:35      0.0031        4.27       0.710
  YS02164001           JUNCTION      0.00   397.50     0  02:35           0        4.25       0.473
  YS02001647           JUNCTION      0.00   655.86     0  03:01           0        4.61       0.618
  YSB1154              JUNCTION     26.18    26.18     0  03:01       0.129        0.13       1.130
  YSB6556              JUNCTION      0.00    25.82     0  03:01           0        0.13       0.969
  YSB1174              JUNCTION     20.52    20.52     0  03:01      0.0948      0.0953       1.368
  YSB1171              JUNCTION      0.00    45.30     0  03:01           0       0.231       2.820
  YS02006553           JUNCTION      0.00   704.27     0  03:31           0        6.59       0.236
  YS02006561           JUNCTION      0.00  1023.72     0  02:47           0        9.47       0.006
  YS02006556           JUNCTION      0.00   704.20     0  03:31           0         6.6       0.177
  YS02006558           JUNCTION    433.40  1023.97     0  02:47        2.93         9.5       0.057
  YS02001783           JUNCTION      0.00  1023.78     0  02:47           0        9.47       0.023
  YS02001784           JUNCTION      1.06  1024.56     0  02:47      0.0299         9.5       0.039
  YS02001786           JUNCTION      0.06  1024.58     0  02:47     0.00159         9.5       0.035
  YS02001788           JUNCTION      0.07  1024.66     0  02:47       0.002         9.5       0.024
  YS02001790           JUNCTION      0.15  1024.59     0  02:47     0.00437         9.5       0.016
  YS02001791           JUNCTION      0.00  1024.43     0  02:47           0         9.5       0.014
  YS02001793           JUNCTION      0.00  1024.32     0  02:47           0         9.5      -0.007
  WSC                  OUTFALL       0.00  1222.75     0  03:08           0        20.5       0.000
  JK-storage           STORAGE       0.00  1024.37     0  02:47           0        9.65     -11.824
  CC-storage           STORAGE       0.00  1580.98     0  02:35           0        8.32       0.757
  XR-storage           STORAGE     844.76   844.76     0  03:01        11.8        12.4      -0.002
  
  
  **********************
  Node Surcharge Summary
  **********************
  
  Surcharging occurs when water rises above the top of the highest conduit.
  ---------------------------------------------------------------------
                                               Max. Height   Min. Depth
                                   Hours       Above Crown    Below Rim
  Node                 Type      Surcharged         Meters       Meters
  ---------------------------------------------------------------------
  WS02004401           JUNCTION        0.33          0.136        1.524
  WS02004402           JUNCTION        0.39          0.139        1.601
  WS02004403           JUNCTION        0.40          0.125        1.905
  WS02004404           JUNCTION        0.66          0.179        2.601
  WS02004406           JUNCTION        0.57          0.117        2.333
  WS02004405           JUNCTION        0.61          0.156        2.644
  WS02006109           JUNCTION        4.22          0.492        1.328
  WS02006110           JUNCTION        2.37          0.239        1.611
  WS02006112           JUNCTION        3.00          0.416        1.264
  WS02006115           JUNCTION        0.17          0.080        2.170
  WS02006116           JUNCTION        0.20          0.086        2.204
  WS02006230           JUNCTION        1.77          0.443        1.127
  WS02006231           JUNCTION        2.57          0.509        1.021
  WS02006232           JUNCTION        3.96          0.662        0.818
  WS02006234           JUNCTION        3.22          0.601        0.639
  WS02006235           JUNCTION        3.40          0.658        0.632
  WS02006238           JUNCTION        3.52          0.675        0.755
  WS02006240           JUNCTION        3.17          0.571        0.819
  WS02006242           JUNCTION        3.38          0.602        0.218
  WS02006243           JUNCTION        2.90          0.500        0.270
  WS02006245           JUNCTION        2.77          0.458        0.392
  WS02006247           JUNCTION        2.81          0.458        0.302
  WS02006248           JUNCTION        2.31          0.375        0.005
  WS02006249           JUNCTION        2.50          0.390        0.000
  WS02006239           JUNCTION        3.25          0.606        0.684
  WS02006251           JUNCTION        1.18          0.210        0.970
  WS02006252           JUNCTION        2.83          0.387        0.713
  WS02006253           JUNCTION        1.23          0.251        2.229
  WS02006256           JUNCTION        6.88          2.050        0.000
  WS02006228           JUNCTION        4.16          0.614        1.586
  YS02001748           JUNCTION        5.30          0.367        0.823
  YS02001751           JUNCTION        5.49          0.558        0.642
  YS02001754           JUNCTION        5.69          0.777        0.373
  YS02001762           JUNCTION        5.87          1.039        0.111
  YS02001765           JUNCTION        5.84          0.987        0.113
  YS02001767           JUNCTION        5.81          0.939        0.091
  YS02001770           JUNCTION        5.80          0.906        0.014
  YS02001774           JUNCTION        5.86          1.012        0.038
  YS02001779           JUNCTION        5.67          0.680        0.000
  YS02001882           JUNCTION        0.93          0.622        0.208
  YS02001884           JUNCTION        0.95          0.660        0.210
  YS02001759           JUNCTION        5.89          1.075        0.135
  YS02001887           JUNCTION        1.03          0.746        0.204
  YS02001890           JUNCTION        1.06          0.760        0.000
  YS02001898           JUNCTION        0.89          0.528        0.212
  YS02001901           JUNCTION        0.99          0.674        0.196
  YS02001904           JUNCTION        0.97          0.637        0.213
  YS02001907           JUNCTION        1.80          0.950        0.000
  YS02001910           JUNCTION        1.10          0.772        0.328
  YS02001915           JUNCTION        0.91          0.575        0.425
  YS02001918           JUNCTION        0.69          0.236        0.574
  YS02001619           JUNCTION        5.47          0.511        0.099
  YS02001629           JUNCTION        5.48          0.470        0.000
  YS02001641           JUNCTION        5.85          0.935        0.165
  YS02001644           JUNCTION        5.85          0.920        0.000
  YS02001652           JUNCTION        5.73          1.130        0.000
  YS02001655           JUNCTION        5.51          1.200        0.000
  YS02001920           JUNCTION        0.73          0.306        0.834
  YS02001658           JUNCTION        5.34          1.236        0.064
  YS02001661           JUNCTION        0.22          1.390        0.000
  YS02001622           JUNCTION        5.50          0.522        0.098
  YS02001633           JUNCTION        5.83          0.925        0.135
  YS02001649           JUNCTION        5.88          1.050        0.000
  YS02001757           JUNCTION        5.97          1.177        0.033
  YS02001895           JUNCTION        0.90          0.560        0.190
  YS02001625           JUNCTION        5.76          0.780        0.000
  YS02163301           JUNCTION        5.81          0.880        0.150
  YS02163601           JUNCTION        5.87          0.988        0.092
  YS02164001           JUNCTION        5.83          0.919        0.181
  YS02001647           JUNCTION        5.75          0.802        0.098
  YS02006553           JUNCTION        1.89          0.964        0.226
  YS02006561           JUNCTION        0.73          0.260        0.890
  YS02006556           JUNCTION        1.32          0.881        0.469
  YS02006558           JUNCTION        1.29          0.860        0.540
  YS02001783           JUNCTION        1.18          0.789        0.811
  YS02001784           JUNCTION        1.15          0.685        0.805
  YS02001786           JUNCTION        1.10          0.583        0.847
  YS02001788           JUNCTION        1.05          0.484        0.996
  YS02001790           JUNCTION        1.75          0.996        0.161
  YS02001791           JUNCTION        1.84          1.234        0.686
  YS02001793           JUNCTION        2.09          1.054        1.546
  
  
  *********************
  Node Flooding Summary
  *********************
  
  Flooding refers to all water that overflows a node, whether it ponds or not.
  --------------------------------------------------------------------------
                                                             Total   Maximum
                                 Maximum   Time of Max       Flood    Ponded
                        Hours       Rate    Occurrence      Volume     Depth
  Node                 Flooded       LPS   days hr:min    10^6 ltr    Meters
  --------------------------------------------------------------------------
  WS02006249              1.11    184.79      0  03:10       0.300     0.000
  WS02006256              4.07    810.37      0  03:02       6.747     0.000
  YS02001779              2.57    564.71      0  03:01       1.531     0.000
  YS02001890              0.01      1.23      0  03:00       0.000     0.000
  YS02001907              0.54    400.32      0  03:01       0.411     0.000
  YS02001629              0.01      2.83      0  02:29       0.000     0.000
  YS02001644              3.84   1353.74      0  03:01       7.312     0.000
  YS02001652              0.01      9.45      0  02:46       0.000     0.000
  YS02001655              0.01    241.89      0  02:19       0.000     0.000
  YS02001661              0.01    148.34      0  02:46       0.000     0.000
  YS02001649              0.05     45.15      0  02:46       0.002     0.000
  YS02001625              1.20    236.97      0  03:01       0.464     0.000
  JK-storage              0.66    707.95      0  02:30       0.709     0.000
  XR-storage              3.14    464.74      0  03:01       1.990     0.000
  
  
  **********************
  Storage Volume Summary
  **********************
  
  --------------------------------------------------------------------------------------------------
                         Average     Avg  Evap Exfil       Maximum     Max    Time of Max    Maximum
                          Volume    Pcnt  Pcnt  Pcnt        Volume    Pcnt     Occurrence    Outflow
  Storage Unit           1000 m3    Full  Loss  Loss       1000 m3    Full    days hr:min        LPS
  --------------------------------------------------------------------------------------------------
  JK-storage               0.130      45     0     0         0.291     100       0  02:26     983.00
  CC-storage               3.254      21     0     0         3.906      25       0  03:03     400.00
  XR-storage               0.801      86     0     0         0.926     100       0  02:50     380.00
  
  
  ***********************
  Outfall Loading Summary
  ***********************
  
  ---------------------------------------------------------------------------------------------------------------------------------
                         Flow       Avg       Max       Total         Total         Total         Total         Total         Total
                         Freq      Flow      Flow      Volume           COD            SS            TN            TP         NH4-N
  Outfall Node           Pcnt       LPS       LPS    10^6 ltr            kg            kg            kg            kg            kg
  ---------------------------------------------------------------------------------------------------------------------------------
  WSC                   99.98    819.41   1222.75      20.472      2367.601      4052.549       151.322        17.790        91.557
  ---------------------------------------------------------------------------------------------------------------------------------
  System                99.98    819.41   1222.75      20.472      2367.601      4052.549       151.322        17.790        91.557
  
  
  ********************
  Link Flow Summary
  ********************
  
  -----------------------------------------------------------------------------
                                 Maximum  Time of Max   Maximum    Max/    Max/
                                  |Flow|   Occurrence   |Veloc|    Full    Full
  Link                 Type          LPS  days hr:min     m/sec    Flow   Depth
  -----------------------------------------------------------------------------
  WS02003066WSF200     CONDUIT    829.07     0  03:05      2.94    0.14    0.30
  WS02006287WS02006284 CONDUIT    413.51     0  03:02      2.04    0.19    0.30
  WS02006284WS02006280 CONDUIT    413.65     0  03:02      2.28    0.17    0.28
  WS02006280WS02006229 CONDUIT    413.66     0  03:02      3.62    0.09    0.25
  WS02006229WS02006228 CONDUIT    817.67     0  03:02      1.63    2.71    1.00
  WS02006256WS02006235 CONDUIT    288.92     0  00:00      4.23    3.06    1.00
  WS02006253WS02006251 CONDUIT    111.05     0  06:31      0.58    0.33    1.00
  WS02006252WS02006251 CONDUIT    401.15     0  05:00      3.19    1.47    1.00
  WS02006251WS02006249 CONDUIT    447.16     0  03:10      1.16    1.29    1.00
  WS02006249WS02006248 CONDUIT    414.25     0  07:20      1.19    2.27    1.00
  WS02006248WS02006247 CONDUIT    415.03     0  07:20      1.16    0.90    1.00
  WS02006247WS02006245 CONDUIT    414.40     0  07:20      1.13    3.29    1.00
  WS02006245WS02006243 CONDUIT    414.06     0  07:20      1.16    1.22    1.00
  WS02006243WS02006242 CONDUIT    414.28     0  07:20      1.08    0.89    1.00
  WS02006242WS02006240 CONDUIT    413.91     0  07:20      1.08    1.64    1.00
  WS02006240WS02006239 CONDUIT    414.22     0  07:20      1.08    1.30    1.00
  WS02006239WS02006238 CONDUIT    414.64     0  07:20      1.08    1.33    1.00
  WS02006238WS02006235 CONDUIT    416.38     0  07:20      1.45    0.93    1.00
  WS02006235WS02006234 CONDUIT    522.86     0  06:52      1.36    5.52    1.00
  WS02006234WS02006232 CONDUIT    522.67     0  06:53      1.39    1.06    1.00
  WS02006232WS02006231 CONDUIT    522.67     0  06:52      1.36    1.10    1.00
  WS02006231WS02006230 CONDUIT    522.41     0  06:53      1.36    7.92    1.00
  WS02006230WS02006229 CONDUIT    532.70     0  06:53      1.38   11.85    1.00
  WS02006228WS02006109 CONDUIT    817.40     0  03:02      1.63    3.57    1.00
  WS02006116WS02004401 CONDUIT    832.13     0  03:03      1.06    1.15    1.00
  WS02006115WS02006116 CONDUIT    831.87     0  03:03      1.06    1.07    1.00
  WS02006113WS02006111 CONDUIT    818.08     0  03:03      2.57    0.98    0.81
  WS02006112WS02006115 CONDUIT    831.40     0  03:03      1.06    0.49    1.00
  WS02006111WS02006112 CONDUIT    819.21     0  03:03      1.73    0.39    0.90
  WS02006110WS02006113 CONDUIT    818.64     0  03:02      1.73    0.74    0.91
  WS02006109WS02006110 CONDUIT    818.62     0  03:02      1.63    1.57    1.00
  WS02004411WS02004412 CONDUIT    828.59     0  03:04      1.16    1.18    0.85
  WS02004401WS02004402 CONDUIT    832.57     0  03:03      1.06    1.00    1.00
  WS02004413WS02003067 CONDUIT    828.64     0  03:05      1.42    0.35    0.70
  WS02004412WS02004413 CONDUIT    828.55     0  03:05      1.10    0.55    0.91
  WS02004410WS02004411 CONDUIT    828.90     0  03:04      1.15    1.13    0.86
  WS02004409WS02004410 CONDUIT    829.70     0  03:04      1.15    1.07    0.87
  WS02004407WS02004409 CONDUIT    831.26     0  03:03      1.64    0.29    0.62
  WS02004406WS02004407 CONDUIT    831.78     0  03:03      1.45    0.37    0.69
  WS02004405WS02004406 CONDUIT    831.85     0  03:03      1.10    1.64    1.00
  WS02004404WS02004405 CONDUIT    832.83     0  03:03      1.15    8.16    1.00
  WS02004403WS02004404 CONDUIT    832.18     0  03:03      1.06    0.60    1.00
  WS02004402WS02004403 CONDUIT    831.92     0  03:03      1.06    1.20    1.00
  WS02004139WS02001211 CONDUIT    382.30     0  04:30      0.90    0.48    0.63
  WS02004138WS02004139 CONDUIT    395.52     0  00:00      3.64    0.08    0.46
  WS02003067WS02003066 CONDUIT    828.97     0  03:05      1.54    0.27    0.48
  WS02001213WS02003059 CONDUIT    398.02     0  04:30      0.89    0.66    0.84
  WS02001212WS02001213 CONDUIT    394.24     0  04:30      1.32    0.61    0.53
  WS02001211WS02001212 CONDUIT    391.96     0  04:30      0.78    0.30    0.69
  WS02003072WS02003073 CONDUIT   1220.63     0  03:08      1.90    2.64    0.55
  WS02003069WS02003072 CONDUIT   1220.50     0  03:07      1.77    0.59    0.59
  WS02003060WS02003069 CONDUIT   1220.20     0  03:07      1.99    0.48    0.53
  WS02003059WS02003060 CONDUIT    403.23     0  04:29      0.95    0.26    0.74
  HS02004901HS02004770 CONDUIT     20.52     0  03:01      0.07    0.08    0.42
  HS02004876HS02004881 CONDUIT     76.55     0  03:01      0.95    0.81    0.12
  HS02004870HS02004876 CONDUIT     61.90     0  03:01      0.65    0.04    0.14
  HS02004842HS02004848 CONDUIT     12.41     0  03:01      0.06    0.01    0.31
  HS02004837HS02004842 CONDUIT     12.98     0  03:02      0.42    0.01    0.32
  HS02004830HS02004837 CONDUIT     43.71     0  03:01      0.57    0.04    0.11
  HS02004824HS02004830 CONDUIT     43.67     0  03:01      0.59    0.06    0.11
  HS02004817HS02004824 CONDUIT     85.69     0  03:01      0.26    0.04    0.48
  HS02004770HS02004777 CONDUIT    104.13     0  03:01      0.35    0.19    0.43
  HS02004799HS02004480 CONDUIT    258.32     0  03:01      0.83    0.33    0.44
  HS02004792HS02004799 CONDUIT    237.06     0  03:01      0.95    0.15    0.36
  HS02004788HS02004792 CONDUIT    135.44     0  03:01      1.06    0.09    0.18
  HS02004785HS02004788 CONDUIT    103.22     0  03:02      0.71    0.78    0.21
  HS02004777HS02004785 CONDUIT    103.38     0  03:01      0.42    0.13    0.35
  HS02004480HS02004478 CONDUIT    302.32     0  03:01      1.26    1.27    0.34
  HS02004479HS02004480 CONDUIT     46.30     0  03:02      0.32    0.04    0.43
  HS02004862HS02004870 CONDUIT     47.43     0  03:01      0.66    0.05    0.10
  HS02004848HS02004852 CONDUIT     21.94     0  03:01      0.45    0.02    0.07
  HS02004856HS02004862 CONDUIT     32.48     0  03:01      0.48    0.03    0.10
  HS02004852HS02004856 CONDUIT     21.85     0  03:02      0.25    0.02    0.13
  HS02004802HS02004478 CONDUIT    111.53     0  03:02      0.45    0.10    0.36
  HS02004478WS02006287 CONDUIT    413.26     0  03:01      1.75    0.12    0.26
  HS02004817HS02004807 CONDUIT     86.14     0  03:01      0.19    0.05    0.63
  HS02004807HS02004802 CONDUIT    111.37     0  03:01      0.38    0.21    0.42
  YS02001759YS02001757 CONDUIT    569.96     0  02:38      0.73    0.41    1.00
  YS02001762YS02001759 CONDUIT    290.20     0  02:38      0.37    0.33    1.00
  YS02001765YS02001762 CONDUIT    290.60     0  02:38      0.37    0.27    1.00
  YS02001770YS02001767 CONDUIT    289.00     0  02:38      0.37    1.14    1.00
  YS02001774YS02001770 CONDUIT    565.86     0  03:01      0.72    0.36    1.00
  YS02001779YS02001774 CONDUIT    564.78     0  03:01      0.72    0.28    1.00
  YS02001649YS02001757 CONDUIT    822.90     0  02:35      1.05    0.50    1.00
  YS02001767YS02001765 CONDUIT    289.97     0  02:38      0.37    0.36    1.00
  YS02006561YS02001783 CONDUIT   1023.78     0  02:47      2.15    0.53    1.00
  YS02001783YS02001784 CONDUIT   1023.50     0  02:47      2.04    1.41    1.00
  YS02001784YS02001785 CONDUIT   1024.52     0  02:47      2.04    2.38    1.00
  YS02001788YS02001790 CONDUIT   1024.43     0  02:47      2.44    0.76    1.00
  YS02001790YS02001791 CONDUIT   1024.43     0  02:47      2.89    1.11    1.00
  YS02001791YS02001793 CONDUIT   1024.32     0  02:47      5.76    0.44    1.00
  YS02001910YS02001907 CONDUIT    455.45     0  03:01      0.58    0.26    1.00
  YS02001786YS02001788 CONDUIT   1024.59     0  02:47      2.31    1.97    1.00
  YS02001915YS02001910 CONDUIT    455.78     0  03:01      0.59    0.23    1.00
  YS02001918YS02001915 CONDUIT    246.81     0  03:31      0.44    0.14    1.00
  YS02001923YS02001920 CONDUIT    190.27     0  03:29      0.71    0.09    1.00
  YS02001926YS02001923 CONDUIT    173.81     0  02:49      0.83    0.25    0.86
  YS02001929YS02001926 CONDUIT    157.13     0  03:01      0.89    0.07    0.76
  YS02001920YS02001918 CONDUIT    208.49     0  03:31      0.70    0.20    1.00
  YS02001629YS02163301 CONDUIT    197.92     0  02:30      0.25    0.24    1.00
  YS02001619YS02001622 CONDUIT    291.12     0  03:01      0.61    0.43    1.00
  YS02001622YS02001625 CONDUIT    290.70     0  03:01      0.37    0.16    1.00
  YS02001625YS02001629 CONDUIT    213.15     0  02:17      0.27    0.10    1.00
  YS02163301YS02001633 CONDUIT    199.46     0  02:28      0.25    0.19    1.00
  YS02163601YS02164001 CONDUIT    397.50     0  02:35      0.51    0.35    1.00
  YS02164001YS02001641 CONDUIT    396.33     0  02:35      0.50    0.54    1.00
  YS02001641YS02001644 CONDUIT    398.24     0  02:28      0.51    1.29    1.00
  YS02001647YS02001649 CONDUIT    655.86     0  03:01      0.84    0.35    1.00
  YS02006553YS02006556 CONDUIT    704.20     0  03:31      0.90    0.60    1.00
  YS02006556YS02006558 CONDUIT    704.54     0  03:31      0.90    0.56    1.00
  YSB6556YSB1171       CONDUIT     25.76     0  03:03      0.09    0.03    0.70
  YS02001907YS02006553 CONDUIT    704.27     0  03:31      0.78    0.83    1.00
  YS02006558YS02006561 CONDUIT   1023.72     0  02:47      3.62    2.26    1.00
  YS02001633YS02163601 CONDUIT    397.45     0  02:35      0.51    0.42    1.00
  YS02001644YS02001647 CONDUIT    655.97     0  03:01      0.84    0.39    1.00
  YS02001745YS02001748 CONDUIT    512.52     0  02:27      1.47    0.20    0.96
  YS02001748YS02001751 CONDUIT    349.47     0  02:17      1.06    0.18    1.00
  YS02001751YS02001754 CONDUIT    343.57     0  03:01      0.92    0.17    1.00
  YS02001754YS02001757 CONDUIT    343.68     0  03:01      0.44    0.14    1.00
  YS02001882YS02001884 CONDUIT     26.96     0  02:28      0.13    0.03    1.00
  YS02001884YS02001887 CONDUIT     53.31     0  02:28      0.09    0.07    1.00
  YS02001890YS02001895 CONDUIT    495.11     0  03:01      0.63    0.23    1.00
  YS02001895YS02001898 CONDUIT    495.91     0  03:01      0.63    0.86    1.00
  YS02001898YS02001901 CONDUIT    495.37     0  03:01      0.63    0.32    1.00
  YS02001901YS02001904 CONDUIT    496.26     0  03:01      0.63    0.77    1.00
  YS02001904YS02001907 CONDUIT    496.26     0  03:01      0.63    0.17    1.00
  YS02001887YS02001890 CONDUIT    495.13     0  03:01      0.63    0.85    1.00
  YS02001652YS02001649 CONDUIT    381.80     0  03:01      0.63    0.19    1.00
  YS02001655YS02001652 CONDUIT    380.51     0  03:01      0.98    0.18    1.00
  YS02001658YS02001655 CONDUIT    390.91     0  02:19      1.22    0.17    1.00
  YS02001661YS02001658 CONDUIT    597.77     0  02:23      1.55    0.23    1.00
  YS02001664YS02001661 CONDUIT    618.32     0  02:46      1.43    0.19    0.77
  YSB1154YSB6556       CONDUIT     25.82     0  03:01      0.17    0.05    0.59
  YSB1174YSB1171       CONDUIT     20.15     0  03:01      0.07    0.03    0.70
  YSB1171HS02004479    CONDUIT     44.91     0  03:02      0.54    0.03    0.55
  HS02004881HS02006253 CONDUIT     84.17     0  03:01      2.12    0.02    0.53
  YS02001793JiankangQianchi CONDUIT   1024.37     0  02:47     16.62    0.08    1.00
  YS02001757CaochengTiaoxuchi CONDUIT   1580.98     0  02:35      2.02    0.69    1.00
  WSF200WS02003060     CONDUIT    829.36     0  03:05      1.97    0.18    0.42
  1                    CONDUIT   1222.75     0  03:08      3.51    0.43    0.46
  CC-Pump-1            PUMP       200.00     0  03:00              1.00
  CC-Pump-2            PUMP       200.00     0  04:00              1.00
  JK-Pump-1            PUMP       300.00     0  00:00              1.00
  JK-Pump-2            PUMP       683.00     0  02:00              1.00
  XR-Pump-1            PUMP        95.00     0  00:00              1.00
  XR-Pump-2            PUMP        95.00     0  00:00              1.00
  XR-Pump-3            PUMP        95.00     0  00:00              1.00
  XR-Pump-4            PUMP        95.00     0  00:00              1.00
  
  
  ***************************
  Flow Classification Summary
  ***************************
  
  -------------------------------------------------------------------------------------
                      Adjusted    ---------- Fraction of Time in Flow Class ---------- 
                       /Actual         Up    Down  Sub   Sup   Up    Down  Norm  Inlet 
  Conduit               Length    Dry  Dry   Dry   Crit  Crit  Crit  Crit  Ltd   Ctrl  
  -------------------------------------------------------------------------------------
  WS02003066WSF200        1.00   0.01  0.02  0.00  0.00  0.97  0.00  0.00  0.51  0.00
  WS02006287WS02006284    1.00   0.03  0.01  0.00  0.65  0.31  0.00  0.00  0.62  0.00
  WS02006284WS02006280    1.00   0.04  0.00  0.00  0.00  0.00  0.00  0.96  0.00  0.00
  WS02006280WS02006229    1.00   0.04  0.00  0.00  0.00  0.01  0.00  0.95  0.02  0.00
  WS02006229WS02006228    1.00   0.00  0.00  0.00  1.00  0.00  0.00  0.00  0.00  0.00
  WS02006256WS02006235    1.00   0.00  0.00  0.00  1.00  0.00  0.00  0.00  0.00  0.00
  WS02006253WS02006251    1.00   0.02  0.01  0.00  0.97  0.00  0.00  0.00  0.00  0.00
  WS02006252WS02006251    1.00   0.17  0.00  0.00  0.12  0.00  0.71  0.00  0.00  0.00
  WS02006251WS02006249    1.00   0.00  0.00  0.00  1.00  0.00  0.00  0.00  0.20  0.00
  WS02006249WS02006248    1.00   0.00  0.01  0.00  0.92  0.00  0.07  0.00  0.00  0.00
  WS02006248WS02006247    1.00   0.01  0.00  0.00  0.99  0.00  0.00  0.00  0.14  0.00
  WS02006247WS02006245    1.00   0.00  0.00  0.00  1.00  0.00  0.00  0.00  0.00  0.00
  WS02006245WS02006243    1.00   0.00  0.00  0.00  0.97  0.00  0.00  0.03  0.00  0.00
  WS02006243WS02006242    1.00   0.00  0.00  0.00  1.00  0.00  0.00  0.00  0.20  0.00
  WS02006242WS02006240    1.00   0.00  0.00  0.00  1.00  0.00  0.00  0.00  0.00  0.00
  WS02006240WS02006239    1.00   0.00  0.00  0.00  0.96  0.00  0.00  0.04  0.01  0.00
  WS02006239WS02006238    1.00   0.00  0.00  0.00  1.00  0.00  0.00  0.00  0.12  0.00
  WS02006238WS02006235    1.00   0.00  0.00  0.00  1.00  0.00  0.00  0.00  0.00  0.00
  WS02006235WS02006234    1.00   0.00  0.00  0.00  0.97  0.00  0.03  0.00  0.00  0.00
  WS02006234WS02006232    1.00   0.00  0.00  0.00  1.00  0.00  0.00  0.00  0.08  0.00
  WS02006232WS02006231    1.00   0.00  0.00  0.00  1.00  0.00  0.00  0.00  0.00  0.00
  WS02006231WS02006230    1.00   0.00  0.00  0.00  0.77  0.00  0.22  0.00  0.00  0.00
  WS02006230WS02006229    1.00   0.00  0.00  0.00  1.00  0.00  0.00  0.00  0.00  0.00
  WS02006228WS02006109    1.00   0.00  0.00  0.00  1.00  0.00  0.00  0.00  0.00  0.00
  WS02006116WS02004401    1.00   0.01  0.00  0.00  0.99  0.00  0.00  0.00  0.00  0.00
  WS02006115WS02006116    1.00   0.01  0.00  0.00  0.99  0.00  0.00  0.00  0.00  0.00
  WS02006113WS02006111    1.00   0.01  0.00  0.00  0.02  0.98  0.00  0.00  0.15  0.00
  WS02006112WS02006115    1.00   0.01  0.00  0.00  0.99  0.00  0.00  0.00  0.00  0.00
  WS02006111WS02006112    1.00   0.01  0.00  0.00  0.99  0.00  0.00  0.00  0.90  0.00
  WS02006110WS02006113    1.00   0.00  0.00  0.00  0.99  0.00  0.00  0.00  0.00  0.00
  WS02006109WS02006110    1.00   0.00  0.00  0.00  0.99  0.00  0.00  0.00  0.00  0.00
  WS02004411WS02004412    1.00   0.02  0.00  0.00  0.98  0.00  0.00  0.00  0.00  0.00
  WS02004401WS02004402    1.00   0.01  0.00  0.00  0.99  0.00  0.00  0.00  0.00  0.00
  WS02004413WS02003067    1.00   0.02  0.01  0.00  0.00  0.00  0.98  0.00  0.00  0.00
  WS02004412WS02004413    1.00   0.02  0.00  0.00  0.98  0.00  0.00  0.00  0.01  0.00
  WS02004410WS02004411    1.00   0.01  0.00  0.00  0.99  0.00  0.00  0.00  0.00  0.00
  WS02004409WS02004410    1.00   0.01  0.00  0.00  0.99  0.00  0.00  0.00  0.02  0.00
  WS02004407WS02004409    1.00   0.01  0.00  0.00  0.98  0.00  0.00  0.00  0.95  0.00
  WS02004406WS02004407    1.00   0.00  0.01  0.00  0.99  0.00  0.00  0.00  0.00  0.00
  WS02004405WS02004406    1.00   0.00  0.00  0.00  1.00  0.00  0.00  0.00  0.00  0.00
  WS02004404WS02004405    1.00   0.00  0.00  0.00  1.00  0.00  0.00  0.00  0.00  0.00
  WS02004403WS02004404    1.00   0.00  0.01  0.00  0.99  0.00  0.00  0.00  0.00  0.00
  WS02004402WS02004403    1.00   0.01  0.00  0.00  0.99  0.00  0.00  0.00  0.00  0.00
  WS02004139WS02001211    1.00   0.00  0.00  0.00  1.00  0.00  0.00  0.00  0.00  0.00
  WS02004138WS02004139    1.00   0.00  0.00  0.00  1.00  0.00  0.00  0.00  1.00  0.00
  WS02003067WS02003066    1.00   0.02  0.00  0.00  0.97  0.00  0.00  0.00  0.00  0.00
  WS02001213WS02003059    1.00   0.00  0.00  0.00  1.00  0.00  0.00  0.00  0.00  0.00
  WS02001212WS02001213    1.00   0.00  0.00  0.00  0.94  0.00  0.06  0.00  0.00  0.00
  WS02001211WS02001212    1.00   0.00  0.00  0.00  1.00  0.00  0.00  0.00  0.00  0.00
  WS02003072WS02003073    1.00   0.00  0.00  0.00  0.00  0.00  0.00  1.00  0.00  0.00
  WS02003069WS02003072    1.00   0.00  0.00  0.00  1.00  0.00  0.00  0.00  0.09  0.00
  WS02003060WS02003069    1.00   0.00  0.00  0.00  0.99  0.01  0.00  0.00  0.07  0.00
  WS02003059WS02003060    1.00   0.00  0.00  0.00  1.00  0.00  0.00  0.00  0.01  0.00
  HS02004901HS02004770    1.00   0.03  0.00  0.00  0.97  0.00  0.00  0.00  0.00  0.00
  HS02004876HS02004881    1.00   0.01  0.00  0.00  0.93  0.06  0.00  0.00  0.00  0.00
  HS02004870HS02004876    1.00   0.00  0.00  0.00  0.99  0.00  0.00  0.00  0.95  0.00
  HS02004842HS02004848    1.00   0.00  0.03  0.00  0.97  0.00  0.00  0.00  0.55  0.00
  HS02004837HS02004842    1.00   0.00  0.00  0.00  1.00  0.00  0.00  0.00  0.11  0.00
  HS02004830HS02004837    1.00   0.00  0.00  0.00  1.00  0.00  0.00  0.00  0.99  0.00
  HS02004824HS02004830    1.00   0.00  0.00  0.00  1.00  0.00  0.00  0.00  0.00  0.00
  HS02004817HS02004824    1.00   0.00  0.00  0.00  1.00  0.00  0.00  0.00  1.00  0.00
  HS02004770HS02004777    1.00   0.00  0.03  0.00  0.97  0.00  0.00  0.00  0.02  0.00
  HS02004799HS02004480    1.00   0.00  0.01  0.00  0.96  0.00  0.03  0.00  0.00  0.00
  HS02004792HS02004799    1.00   0.00  0.00  0.00  1.00  0.00  0.00  0.00  0.98  0.00
  HS02004788HS02004792    1.00   0.00  0.00  0.00  1.00  0.00  0.00  0.00  0.98  0.00
  HS02004785HS02004788    1.00   0.00  0.00  0.00  1.00  0.00  0.00  0.00  0.00  0.00
  HS02004777HS02004785    1.00   0.00  0.00  0.00  1.00  0.00  0.00  0.00  0.12  0.00
  HS02004480HS02004478    1.00   0.03  0.00  0.00  0.72  0.00  0.00  0.25  0.00  0.00
  HS02004479HS02004480    1.00   0.01  0.00  0.00  0.99  0.00  0.00  0.00  0.11  0.00
  HS02004862HS02004870    1.00   0.00  0.00  0.00  1.00  0.00  0.00  0.00  0.03  0.00
  HS02004848HS02004852    1.00   0.03  0.00  0.00  0.97  0.00  0.00  0.00  0.62  0.00
  HS02004856HS02004862    1.00   0.00  0.04  0.00  0.96  0.00  0.00  0.00  0.83  0.00
  HS02004852HS02004856    1.00   0.03  0.00  0.00  0.96  0.00  0.00  0.00  0.85  0.00
  HS02004802HS02004478    1.00   0.03  0.00  0.00  0.96  0.00  0.00  0.00  0.02  0.00
  HS02004478WS02006287    1.00   0.04  0.00  0.00  0.79  0.17  0.00  0.00  0.64  0.00
  HS02004817HS02004807    1.00   0.00  0.03  0.00  0.97  0.00  0.00  0.00  0.01  0.00
  HS02004807HS02004802    1.00   0.03  0.00  0.00  0.96  0.00  0.00  0.00  0.00  0.00
  YS02001759YS02001757    1.00   0.00  0.00  0.00  1.00  0.00  0.00  0.00  0.16  0.00
  YS02001762YS02001759    1.00   0.00  0.00  0.00  1.00  0.00  0.00  0.00  0.03  0.00
  YS02001765YS02001762    1.00   0.00  0.00  0.00  1.00  0.00  0.00  0.00  0.13  0.00
  YS02001770YS02001767    1.00   0.00  0.00  0.00  1.00  0.00  0.00  0.00  0.00  0.00
  YS02001774YS02001770    1.00   0.00  0.03  0.00  0.97  0.00  0.00  0.00  0.03  0.00
  YS02001779YS02001774    1.00   0.00  0.00  0.00  1.00  0.00  0.00  0.00  0.18  0.00
  YS02001649YS02001757    1.00   0.00  0.00  0.00  1.00  0.00  0.00  0.00  0.16  0.00
  YS02001767YS02001765    1.00   0.00  0.00  0.00  1.00  0.00  0.00  0.00  0.00  0.00
  YS02006561YS02001783    1.00   0.05  0.00  0.00  0.30  0.65  0.00  0.00  0.48  0.00
  YS02001783YS02001784    1.00   0.00  0.05  0.00  0.95  0.00  0.00  0.00  0.00  0.00
  YS02001784YS02001785    1.00   0.00  0.00  0.00  1.00  0.00  0.00  0.00  0.17  0.00
  YS02001788YS02001790    1.00   0.00  0.00  0.00  0.36  0.64  0.00  0.00  0.40  0.00
  YS02001790YS02001791    1.00   0.00  0.00  0.00  0.33  0.67  0.00  0.00  0.50  0.00
  YS02001791YS02001793    1.00   0.00  0.00  0.00  0.35  0.65  0.00  0.00  0.02  0.00
  YS02001910YS02001907    1.00   0.00  0.00  0.00  0.99  0.00  0.00  0.01  0.12  0.00
  YS02001786YS02001788    1.00   0.00  0.00  0.00  0.33  0.66  0.00  0.00  0.00  0.00
  YS02001915YS02001910    1.00   0.00  0.00  0.00  0.99  0.01  0.00  0.00  0.15  0.00
  YS02001918YS02001915    1.00   0.00  0.00  0.00  0.99  0.01  0.00  0.00  0.55  0.00
  YS02001923YS02001920    1.00   0.00  0.00  0.00  1.00  0.00  0.00  0.00  0.84  0.00
  YS02001926YS02001923    1.00   0.00  0.02  0.00  0.13  0.00  0.85  0.00  0.00  0.00
  YS02001929YS02001926    1.00   0.00  0.03  0.00  0.97  0.00  0.00  0.00  0.76  0.00
  YS02001920YS02001918    1.00   0.00  0.00  0.00  1.00  0.00  0.00  0.00  0.00  0.00
  YS02001629YS02163301    1.00   0.04  0.00  0.00  0.96  0.00  0.00  0.00  0.00  0.00
  YS02001619YS02001622    1.00   0.03  0.00  0.00  0.97  0.00  0.00  0.00  0.00  0.00
  YS02001622YS02001625    1.00   0.03  0.00  0.00  0.97  0.00  0.00  0.00  0.04  0.00
  YS02001625YS02001629    1.00   0.03  0.01  0.00  0.94  0.00  0.01  0.00  0.00  0.00
  YS02163301YS02001633    1.00   0.00  0.04  0.00  0.96  0.00  0.00  0.00  0.00  0.00
  YS02163601YS02164001    1.00   0.00  0.02  0.00  0.98  0.00  0.00  0.00  0.00  0.00
  YS02164001YS02001641    1.00   0.00  0.02  0.00  0.98  0.00  0.00  0.00  0.06  0.00
  YS02001641YS02001644    1.00   0.00  0.00  0.00  1.00  0.00  0.00  0.00  0.00  0.00
  YS02001647YS02001649    1.00   0.00  0.04  0.00  0.96  0.00  0.00  0.00  0.01  0.00
  YS02006553YS02006556    1.00   0.00  0.00  0.00  1.00  0.00  0.00  0.00  0.03  0.00
  YS02006556YS02006558    1.00   0.00  0.00  0.00  1.00  0.00  0.00  0.00  0.00  0.00
  YSB6556YSB1171          1.00   0.01  0.02  0.00  0.97  0.00  0.00  0.00  0.00  0.00
  YS02001907YS02006553    1.00   0.00  0.01  0.00  0.99  0.00  0.00  0.00  0.00  0.00
  YS02006558YS02006561    1.00   0.05  0.00  0.00  0.13  0.82  0.00  0.00  0.48  0.00
  YS02001633YS02163601    1.00   0.00  0.00  0.00  1.00  0.00  0.00  0.00  0.15  0.00
  YS02001644YS02001647    1.00   0.00  0.04  0.00  0.96  0.00  0.00  0.00  0.00  0.00
  YS02001745YS02001748    1.00   0.00  0.00  0.00  0.92  0.01  0.00  0.07  0.04  0.00
  YS02001748YS02001751    1.00   0.00  0.00  0.00  0.97  0.03  0.00  0.00  0.15  0.00
  YS02001751YS02001754    1.00   0.00  0.00  0.00  0.95  0.00  0.00  0.05  0.02  0.00
  YS02001754YS02001757    1.00   0.00  0.00  0.00  1.00  0.00  0.00  0.00  0.18  0.00
  YS02001882YS02001884    1.00   0.04  0.00  0.00  0.96  0.00  0.00  0.00  0.00  0.00
  YS02001884YS02001887    1.00   0.02  0.01  0.00  0.97  0.00  0.00  0.00  0.00  0.00
  YS02001890YS02001895    1.00   0.00  0.04  0.00  0.96  0.00  0.00  0.00  0.00  0.00
  YS02001895YS02001898    1.00   0.04  0.00  0.00  0.95  0.00  0.01  0.00  0.00  0.00
  YS02001898YS02001901    1.00   0.04  0.00  0.00  0.96  0.00  0.00  0.00  0.01  0.00
  YS02001901YS02001904    1.00   0.04  0.00  0.00  0.96  0.00  0.00  0.00  0.00  0.00
  YS02001904YS02001907    1.00   0.00  0.04  0.00  0.96  0.00  0.00  0.00  0.00  0.00
  YS02001887YS02001890    1.00   0.00  0.00  0.00  0.99  0.00  0.01  0.00  0.00  0.00
  YS02001652YS02001649    1.00   0.00  0.00  0.00  1.00  0.00  0.00  0.00  0.16  0.00
  YS02001655YS02001652    1.00   0.00  0.00  0.00  0.95  0.00  0.00  0.05  0.02  0.00
  YS02001658YS02001655    1.00   0.00  0.04  0.00  0.94  0.02  0.00  0.00  0.08  0.00
  YS02001661YS02001658    1.00   0.04  0.00  0.00  0.92  0.04  0.00  0.00  0.08  0.00
  YS02001664YS02001661    1.00   0.03  0.00  0.00  0.92  0.04  0.00  0.00  0.19  0.00
  YSB1154YSB6556          1.00   0.03  0.00  0.00  0.97  0.00  0.00  0.00  0.01  0.00
  YSB1174YSB1171          1.00   0.02  0.01  0.00  0.97  0.00  0.00  0.00  0.00  0.00
  YSB1171HS02004479       1.00   0.01  0.00  0.00  0.98  0.00  0.00  0.00  0.10  0.00
  HS02004881HS02006253    1.00   0.02  0.00  0.00  0.79  0.01  0.00  0.19  0.60  0.00
  YS02001793JiankangQianchi    1.00   0.00  0.00  0.00  0.66  0.34  0.00  0.00  0.42  0.00
  YS02001757CaochengTiaoxuchi    1.00   0.00  0.06  0.00  0.94  0.00  0.00  0.00  0.00  0.00
  WSF200WS02003060        1.00   0.00  0.01  0.00  0.97  0.02  0.00  0.00  0.32  0.00
  1                       1.00   0.00  0.00  0.00  0.00  1.00  0.00  0.00  0.47  0.00
  
  
  *************************
  Conduit Surcharge Summary
  *************************
  
  ----------------------------------------------------------------------------
                                                           Hours        Hours 
                         --------- Hours Full --------   Above Full   Capacity
  Conduit                Both Ends  Upstream  Dnstream   Normal Flow   Limited
  ----------------------------------------------------------------------------
  WS02006229WS02006228        4.16      4.29      4.16      5.11         4.16
  WS02006256WS02006235        6.19      6.19      6.88      4.33         0.01
  WS02006253WS02006251        2.26      2.26      2.43      0.01         0.01
  WS02006252WS02006251        1.66      1.66      2.83      2.36         0.01
  WS02006251WS02006249        2.29      2.30      2.50      1.32         1.03
  WS02006249WS02006248        2.31      2.31      2.50      4.37         0.01
  WS02006248WS02006247        2.47      2.47      2.81      0.01         0.01
  WS02006247WS02006245        2.77      2.85      2.77      4.61         2.73
  WS02006245WS02006243        2.80      2.81      2.90      0.46         0.38
  WS02006243WS02006242        2.96      2.96      3.38      0.01         0.01
  WS02006242WS02006240        3.17      3.17      3.51      2.64         0.01
  WS02006240WS02006239        3.17      3.21      3.25      1.27         0.71
  WS02006239WS02006238        3.44      3.50      3.52      1.47         0.96
  WS02006238WS02006235        3.46      3.46      3.73      0.01         0.01
  WS02006235WS02006234        3.22      3.22      3.39      6.10         0.01
  WS02006234WS02006232        3.30      3.30      3.96      1.18         1.15
  WS02006232WS02006231        2.57      2.57      3.96      1.46         0.01
  WS02006231WS02006230        1.77      1.77      2.67      6.19         0.01
  WS02006230WS02006229        4.70      5.02      4.70      6.27         4.70
  WS02006228WS02006109        4.22      4.50      4.22      5.62         4.21
  WS02006116WS02004401        0.31      0.31      0.33      0.25         0.26
  WS02006115WS02006116        0.19      0.19      0.20      0.15         0.14
[...]
  YS02001765YS02001762        5.84      5.84      5.87      0.01         0.01
  YS02001770YS02001767        5.81      5.81      5.81      0.18         0.84
  YS02001774YS02001770        5.80      5.80      5.86      0.01         0.01
  YS02001779YS02001774        5.67      5.67      5.86      0.01         0.01
  YS02001649YS02001757        5.88      5.88      5.97      0.01         0.01
  YS02001767YS02001765        5.81      5.81      5.84      0.01         0.01
  YS02006561YS02001783        0.73      0.73      1.18      0.01         0.01
  YS02001783YS02001784        1.15      1.18      1.15      1.31         1.08
  YS02001784YS02001785        1.10      1.15      1.10      2.39         1.10
  YS02001788YS02001790        1.05      1.05      1.75      0.01         0.01
  YS02001790YS02001791        1.75      1.75      1.84      0.92         0.89
  YS02001791YS02001793        1.84      1.84      2.17      0.01         0.01
  YS02001910YS02001907        1.10      1.10      1.79      0.01         0.01
  YS02001786YS02001788        1.05      1.10      1.05      1.95         1.05
  YS02001915YS02001910        0.91      0.91      1.10      0.01         0.01
  YS02001918YS02001915        0.69      0.69      0.91      0.01         0.01
  YS02001923YS02001920        0.53      0.53      0.73      0.01         0.01
  YS02001920YS02001918        0.69      0.69      0.73      0.01         0.01
  YS02001629YS02163301        5.80      5.80      5.81      0.01         0.01
  YS02001619YS02001622        5.47      5.47      5.50      0.01         0.01
  YS02001622YS02001625        5.50      5.50      5.76      0.01         0.01
  YS02001625YS02001629        5.48      5.48      5.76      0.01         0.01
  YS02163301YS02001633        5.81      5.81      5.84      0.01         0.01
  YS02163601YS02164001        5.83      5.83      5.87      0.01         0.01
  YS02164001YS02001641        5.83      5.83      5.85      0.01         0.03
  YS02001641YS02001644        5.85      5.85      5.85      1.52         1.61
  YS02001647YS02001649        5.75      5.75      5.88      0.01         0.01
  YS02006553YS02006556        1.32      1.32      1.89      0.01         0.01
  YS02006556YS02006558        1.53      1.53      1.96      0.01         0.01
  YS02001907YS02006553        2.41      2.41      2.63      0.01         0.01
  YS02006558YS02006561        0.94      1.29      0.94      2.24         0.94
  YS02001633YS02163601        5.83      5.83      5.87      0.01         0.01
  YS02001644YS02001647        5.75      5.75      5.85      0.01         0.01
  YS02001745YS02001748        0.01      0.01      5.30      0.01         0.01
  YS02001748YS02001751        5.35      5.35      5.49      0.01         0.01
  YS02001751YS02001754        5.49      5.49      5.69      0.01         0.01
  YS02001754YS02001757        5.74      5.74      5.97      0.01         0.01
  YS02001882YS02001884        0.93      0.93      0.95      0.01         0.01
  YS02001884YS02001887        1.00      1.00      1.03      0.01         0.01
  YS02001890YS02001895        0.90      0.90      1.13      0.01         0.01
  YS02001895YS02001898        0.89      0.89      0.90      0.01         0.01
  YS02001898YS02001901        0.91      0.91      0.99      0.01         0.01
  YS02001901YS02001904        0.97      0.97      0.99      0.01         0.01
  YS02001904YS02001907        0.97      0.97      1.91      0.01         0.01
  YS02001887YS02001890        1.06      1.06      1.08      0.01         0.01
  YS02001652YS02001649        5.76      5.76      5.88      0.01         0.01
  YS02001655YS02001652        5.50      5.50      5.73      0.01         0.01
  YS02001658YS02001655        5.33      5.33      5.50      0.01         0.01
  YS02001661YS02001658        0.19      0.19      5.33      0.01         0.01
  YS02001664YS02001661        0.01      0.01      1.02      0.01         0.01
  HS02004881HS02006253        0.01      0.01      1.23      0.01         0.01
  YS02001793JiankangQianchi        2.09      2.09      3.96      0.01         0.01
  YS02001757CaochengTiaoxuchi        5.21      5.21      5.97      0.01         0.01
  
  
  ***************
  Pumping Summary
  ***************
  
  ---------------------------------------------------------------------------------------------------------
                                                  Min       Avg       Max     Total     Power    % Time Off
                        Percent   Number of      Flow      Flow      Flow    Volume     Usage    Pump Curve
  Pump                 Utilized   Start-Ups       LPS       LPS       LPS  10^6 ltr     Kw-hr    Low   High
  ---------------------------------------------------------------------------------------------------------
  CC-Pump-1               63.83           1      0.00    179.17    200.00     3.180      3.38    0.0    0.0
  CC-Pump-2               48.92           5      0.00     96.22    200.00     1.560      1.97    0.0    0.0
  JK-Pump-1               59.58           5      0.00    219.20    300.00     3.709     57.52    0.0    0.0
  JK-Pump-2               53.19           4      0.00    398.43    683.00     6.355     90.93    0.0   96.4
  XR-Pump-1               95.74           3      0.00     93.39     95.00     2.451     22.34    0.0    0.0
  XR-Pump-2               95.74           3      0.00     93.39     95.00     2.451     22.34    0.0    0.0
  XR-Pump-3               95.74           3      0.00     93.39     95.00     2.451     22.34    0.0    0.0
  XR-Pump-4               95.74           3      0.00     93.39     95.00     2.451     22.34    0.0    0.0
  
  
  ***************************
  Link Pollutant Load Summary
  ***************************
  
  ------------------------------------------------------------------------------------------
                                 COD            SS            TN            TP         NH4-N
  Link                            kg            kg            kg            kg            kg
  ------------------------------------------------------------------------------------------
  WS02003066WSF200           843.840      1550.491        22.176         1.928        11.669
  WS02006287WS02006284       268.081       498.259         9.347         0.943         5.214
  WS02006284WS02006280       268.568       499.044         9.394         0.949         5.244
  WS02006280WS02006229       268.532       498.977         9.392         0.949         5.243
  WS02006229WS02006228       850.310      1561.985        21.874         1.872        11.444
  WS02006256WS02006235       186.249       342.007         4.098         0.318         2.071
  WS02006253WS02006251        54.360       104.039         1.298         0.102         0.658
  WS02006252WS02006251       387.594       701.214         8.077         0.575         3.961
  WS02006251WS02006249       431.876       787.245         9.161         0.662         4.513
  WS02006249WS02006248       404.315       736.571         8.588         0.621         4.232
  WS02006248WS02006247       404.129       736.282         8.584         0.620         4.230
  WS02006247WS02006245       403.661       735.447         8.573         0.620         4.225
  WS02006245WS02006243       403.131       734.594         8.557         0.618         4.217
  WS02006243WS02006242       402.861       734.132         8.553         0.618         4.215
  WS02006242WS02006240       402.672       733.834         8.550         0.618         4.214
  WS02006240WS02006239       403.283       734.957         8.570         0.620         4.224
  WS02006239WS02006238       404.706       737.314         8.627         0.626         4.257
  WS02006238WS02006235       405.280       738.108         8.654         0.629         4.273
  WS02006235WS02006234       585.970      1070.389        12.586         0.932         6.255
  WS02006234WS02006232       585.396      1069.361        12.579         0.932         6.252
  WS02006232WS02006231       584.638      1068.021        12.562         0.930         6.243
  WS02006231WS02006230       584.027      1066.930        12.549         0.930         6.238
  WS02006230WS02006229       582.858      1064.910        12.517         0.927         6.220
  WS02006228WS02006109       849.188      1560.028        21.842         1.869        11.426
  WS02006116WS02004401       859.176      1577.571        22.570         1.960        11.874
  WS02006115WS02006116       860.679      1580.188        22.618         1.965        11.900
  WS02006113WS02006111       854.715      1568.482        22.559         1.962        11.882
  WS02006112WS02006115       862.019      1582.523        22.666         1.969        11.927
  WS02006111WS02006112       854.032      1567.275        22.538         1.960        11.870
  WS02006110WS02006113       855.280      1569.450        22.580         1.964        11.894
  WS02006109WS02006110       856.508      1571.568        22.626         1.969        11.920
  WS02004411WS02004412       847.988      1557.797        22.307         1.940        11.741
  WS02004401WS02004402       857.711      1575.013        22.520         1.955        11.846
  WS02004413WS02003067       844.716      1552.049        22.198         1.930        11.681
  WS02004412WS02004413       846.364      1554.943        22.259         1.936        11.715
  WS02004410WS02004411       849.279      1560.066        22.345         1.943        11.761
  WS02004409WS02004410       850.525      1562.254        22.383         1.947        11.782
  WS02004407WS02004409       851.593      1564.127        22.413         1.950        11.798
  WS02004406WS02004407       851.933      1564.723        22.420         1.950        11.801
  WS02004405WS02004406       853.750      1567.890        22.485         1.956        11.838
  WS02004404WS02004405       855.300      1570.640        22.511         1.958        11.849
  WS02004403WS02004404       855.023      1570.323        22.430         1.947        11.797
  WS02004402WS02004403       856.284      1572.527        22.473         1.951        11.821
  WS02004139WS02001211      1386.372      2284.411       115.218        14.109        71.151
  WS02004138WS02004139      1392.915      2295.212       115.747        14.173        71.477
  WS02003067WS02003066       844.047      1550.864        22.183         1.928        11.673
  WS02001213WS02003059      1419.765      2337.126       118.634        14.539        73.296
  WS02001212WS02001213      1428.799      2351.961       119.391        14.632        73.763
  WS02001211WS02001212      1430.669      2355.006       119.554        14.652        73.864
  WS02003072WS02003073      2362.460      4044.676       150.688        17.708        91.155
  WS02003069WS02003072      2367.682      4053.355       151.079        17.755        91.395
  WS02003060WS02003069      2370.628      4058.385       151.250        17.775        91.497
  WS02003059WS02003060      1417.450      2333.325       118.437        14.515        73.174
  HS02004901HS02004770        10.270        19.478         0.195         0.015         0.091
  HS02004876HS02004881        37.321        72.586         0.843         0.062         0.416
  HS02004870HS02004876        28.163        54.633         0.678         0.051         0.338
  HS02004842HS02004848         5.467        10.277         0.115         0.008         0.053
  HS02004837HS02004842        10.072        17.582         0.584         0.067         0.347
  HS02004830HS02004837        65.640       112.707         4.557         0.546         2.785
  HS02004824HS02004830        66.391       113.910         4.628         0.555         2.830
  HS02004817HS02004824        88.209       156.982         5.083         0.584         3.051
  HS02004770HS02004777        39.297        75.470         0.819         0.055         0.377
  HS02004799HS02004480       131.419       245.392         3.680         0.335         1.933
  HS02004792HS02004799       119.093       220.678         3.497         0.327         1.853
  HS02004788HS02004792        68.400       126.866         2.388         0.235         1.309
  HS02004785HS02004788        40.736        77.766         0.969         0.074         0.471
  HS02004777HS02004785        40.061        76.671         0.909         0.067         0.434
  HS02004480HS02004478       165.966       312.625         4.244         0.375         2.196
  HS02004479HS02004480        38.149        72.981         0.884         0.079         0.462
  HS02004862HS02004870        21.017        40.121         0.536         0.043         0.270
  HS02004848HS02004852         8.058        15.280         0.167         0.011         0.077
  HS02004856HS02004862        14.073        27.342         0.284         0.019         0.133
  HS02004852HS02004856         8.065        15.291         0.167         0.011         0.077
  HS02004802HS02004478       102.893       186.902         5.163         0.576         3.055
  HS02004478WS02006287       268.277       498.587         9.364         0.945         5.225
  HS02004817HS02004807        86.893       154.870         4.957         0.568         2.972
  HS02004807HS02004802       103.119       187.254         5.195         0.580         3.075
  YS02001759YS02001757       345.972       629.086         6.949         0.480         3.395
  YS02001762YS02001759       157.525       286.834         3.389         0.238         1.680
  YS02001765YS02001762       157.578       287.326         3.411         0.240         1.693
  YS02001770YS02001767       156.502       286.512         3.193         0.209         1.550
  YS02001774YS02001770       168.261       324.262         3.258         0.215         1.574
  YS02001779YS02001774       167.280       322.234         3.348         0.229         1.638
  YS02001649YS02001757       300.635       534.238         6.046         0.421         2.898
  YS02001767YS02001765       158.067       288.532         3.437         0.242         1.708
  YS02006561YS02001783       940.003      1724.256        19.905         1.493         9.933
  YS02001783YS02001784       939.893      1724.086        19.901         1.493         9.931
  YS02001784YS02001785       947.197      1735.779        20.613         1.582        10.376
  YS02001788YS02001790       947.764      1736.692        20.685         1.591        10.422
  YS02001790YS02001791       948.802      1738.375        20.785         1.604        10.485
  YS02001791YS02001793       948.715      1738.224        20.781         1.604        10.482
  YS02001910YS02001907       330.080       599.123         8.232         0.642         4.253
  YS02001786YS02001788       947.393      1736.100        20.641         1.586        10.394
  YS02001915YS02001910       330.173       599.272         8.188         0.636         4.224
  YS02001918YS02001915       157.579       273.510         4.610         0.430         2.512
  YS02001923YS02001920       136.693       239.853         2.626         0.183         1.274
  YS02001926YS02001923       136.394       239.400         2.586         0.178         1.248
  YS02001929YS02001926       136.171       239.031         2.555         0.174         1.228
  YS02001920YS02001918       156.784       271.989         4.565         0.425         2.486
  YS02001629YS02163301       103.549       183.482         2.172         0.140         1.012
  YS02001619YS02001622       146.387       262.918         3.031         0.197         1.414
  YS02001622YS02001625       145.240       261.107         3.003         0.195         1.401
  YS02001625YS02001629       104.639       185.284         2.196         0.142         1.023
  YS02163301YS02001633       103.266       183.004         2.164         0.140         1.010
  YS02163601YS02164001       362.078       646.275         7.117         0.502         3.404
  YS02164001YS02001641       361.599       645.467         7.097         0.501         3.393
  YS02001641YS02001644       361.846       645.809         7.096         0.500         3.392
  YS02001647YS02001649       349.259       628.929         6.919         0.482         3.300
  YS02006553YS02006556       661.554      1207.972        14.308         1.100         7.215
  YS02006556YS02006558       661.468      1207.799        14.275         1.095         7.193
  YSB6556YSB1171              21.954        42.200         0.451         0.038         0.229
  YS02001907YS02006553       661.666      1208.204        14.322         1.102         7.224
  YS02006558YS02006561       939.993      1724.228        19.904         1.493         9.932
  YS02001633YS02163601       362.776       647.354         7.097         0.498         3.387
  YS02001644YS02001647       355.931       640.727         7.032         0.490         3.353
  YS02001745YS02001748       208.498       383.915         4.585         0.312         2.272
  YS02001748YS02001751       207.698       382.163         4.706         0.331         2.355
  YS02001751YS02001754       206.710       380.541         4.688         0.330         2.347
  YS02001754YS02001757       207.487       381.715         4.852         0.353         2.454
  YS02001882YS02001884         2.722         4.686         0.055         0.004         0.027
  YS02001884YS02001887         6.808        12.043         0.133         0.010         0.066
  YS02001890YS02001895       389.395       720.518         7.188         0.539         3.508
  YS02001895YS02001898       389.207       720.254         7.181         0.539         3.504
  YS02001898YS02001901       389.003       719.910         7.177         0.538         3.502
  YS02001901YS02001904       388.820       719.637         7.183         0.539         3.506
  YS02001904YS02001907       389.041       719.979         7.236         0.547         3.541
  YS02001887YS02001890       390.223       721.767         7.243         0.546         3.541
  YS02001652YS02001649       151.476       277.274         3.088         0.222         1.448
  YS02001655YS02001652       152.009       278.142         3.102         0.223         1.455
  YS02001658YS02001655       151.496       277.333         3.015         0.212         1.398
  YS02001661YS02001658       155.668       284.805         3.099         0.217         1.437
  YS02001664YS02001661       176.505       319.644         3.560         0.249         1.648
  YSB1154YSB6556              21.534        41.530         0.402         0.032         0.198
  YSB1174YSB1171              14.656        28.293         0.298         0.024         0.150
  YSB1171HS02004479           38.107        72.914         0.888         0.079         0.465
  HS02004881HS02006253        42.435        82.913         0.929         0.067         0.456
  YS02001793JiankangQianchi       949.182      1738.999        20.806         1.606        10.497
  YS02001757CaochengTiaoxuchi       631.263      1129.647        13.318         0.943         6.531
  WSF200WS02003060           843.606      1550.082        22.175         1.928        11.669
  1                         2367.601      4052.549       151.322        17.790        91.557
  CC-Pump-1                  258.588       467.401         5.396         0.384         2.646
  CC-Pump-2                  129.035       233.863         2.682         0.191         1.315
  JK-Pump-1                  234.355       434.588         4.955         0.375         2.478
  JK-Pump-2                  500.658       932.258        10.519         0.797         5.256
  XR-Pump-1                  349.192       575.380        29.019         3.553        17.920
  XR-Pump-2                  349.192       575.380        29.019         3.553        17.920
  XR-Pump-3                  349.192       575.380        29.019         3.553        17.920
  XR-Pump-4                  349.192       575.380        29.019         3.553        17.920
  

  Analysis begun on:  Fri Jul 16 10:02:04 2021
  Analysis ended on:  Fri Jul 16 10:02:07 2021
  Total elapsed time: 00:00:03