
  EPA STORM WATER MANAGEMENT MODEL - VERSION 5.1 (Build 5.3.0.dev0)
  --------------------------------------------------------------

  WARNING 04: minimum elevation drop used for Conduit WS02004404WS02004405
  WARNING 03: negative offset ignored for Link YS02001904YS02001907
  
  *********************************************************
  NOTE: The summary statistics displayed in this report are
  based on results found at every computational time step,  
  not just on results from each reporting time step.
  *********************************************************
  
  ****************
  Analysis Options
  ****************
  Flow Units ............... LPS
  Process Models:
    Rainfall/Runoff ........ YES
    RDII ................... NO
    Snowmelt ............... NO
    Groundwater ............ NO
    Flow Routing ........... YES
    Ponding Allowed ........ NO
    Water Quality .......... YES
  Infiltration Method ...... HORTON
  Flow Routing Method ...... DYNWAVE
  Surcharge Method ......... EXTRAN
  Starting Date ............ 08/28/2015 08:00:00
  Ending Date .............. 08/28/2015 15:50:00
  Antecedent Dry Days ...... 8.0
  Report Time Step ......... 00:01:00
  Wet Time Step ............ 00:01:00
  Dry Time Step ............ 00:01:00
  Routing Time Step ........ 5.00 sec
  Variable Time Step ....... YES
  Maximum Trials ........... 8
  Number of Threads ........ 4
  Head Tolerance ........... 0.001500 m
  
  
  **************************        Volume         Depth
  Runoff Quantity Continuity     hectare-m            mm
  **************************     ---------       -------
  Total Precipitation ......         5.556        12.164
  Evaporation Loss .........         0.000         0.000
  Infiltration Loss ........         1.002         2.194
  Surface Runoff ...........         3.688         8.075
  Final Storage ............         0.866         1.897
  Continuity Error (%) .....        -0.019
  
  
  **************************           COD            SS            TN            TP         NH4-N
  Runoff Quality Continuity             kg            kg            kg            kg            kg
  **************************    ----------    ----------    ----------    ----------    ----------
  Initial Buildup ..........     41378.656     70582.865      1804.177       168.684      1032.807
  Surface Buildup ..........        19.275        34.271         2.335         0.213         1.362
  Wet Deposition ...........         0.000         0.000         0.000         0.000         0.000
  Sweeping Removal .........         0.000         0.000         0.000         0.000         0.000
  Infiltration Loss ........        84.023       157.502         1.599         0.111         0.761
  BMP Removal ..............         0.000         0.000         0.000         0.000         0.000
  Surface Runoff ...........      3122.074      5752.154        60.620         4.098        28.771
  Remaining Buildup ........     38190.779     64705.500      1744.271       164.686      1004.628
  Continuity Error (%) .....         0.003         0.003         0.001         0.001         0.001
  
  
  **************************        Volume        Volume
  Flow Routing Continuity        hectare-m      10^6 ltr
  **************************     ---------     ---------
  Dry Weather Inflow .......         0.616         6.165
  Wet Weather Inflow .......         3.687        36.871
  Groundwater Inflow .......         0.000         0.000
  RDII Inflow ..............         0.000         0.000
  External Inflow ..........         0.102         1.024
  External Outflow .........         2.068        20.684
  Flooding Loss ............         1.892        18.919
  Evaporation Loss .........         0.000         0.000
  Exfiltration Loss ........         0.000         0.000
  Initial Stored Volume ....         0.076         0.761
  Final Stored Volume ......         0.638         6.382
  Continuity Error (%) .....        -2.601
  
  
  **************************           COD            SS            TN            TP         NH4-N
  Quality Routing Continuity            kg            kg            kg            kg            kg
  **************************    ----------    ----------    ----------    ----------    ----------
  Dry Weather Inflow .......      1541.201      2465.922       147.955        18.494        92.472
  Wet Weather Inflow .......      3121.344      5750.931        60.604         4.097        28.764
  Groundwater Inflow .......         0.000         0.000         0.000         0.000         0.000
  RDII Inflow ..............         0.000         0.000         0.000         0.000         0.000
  External Inflow ..........       183.418       293.469        17.608         2.201        11.005
  External Outflow .........      2428.159      4156.364       154.060        18.083        93.148
  Flooding Loss ............      1779.092      3265.874        46.343         4.064        24.425
  Exfiltration Loss ........         0.000         0.000         0.000         0.000         0.000
  Mass Reacted .............         0.000         0.000         0.000         0.000         0.000
  Initial Stored Mass ......         0.000         0.000         0.000         0.000         0.000
  Final Stored Mass ........       499.935       850.347        22.550         2.406        13.070
  Continuity Error (%) .....         2.864         2.794         1.421         0.968         1.208
  
  
  *************************
  Highest Continuity Errors
  *************************
  Node HS02004842 (14.53%)
  Node JK-storage (-11.50%)
  Node YS02001884 (10.73%)
  Node YSB1171 (2.74%)
  Node HS02004817 (2.73%)
  
  
  ***************************
  Time-Step Critical Elements
  ***************************
  Link WS02006252WS02006251 (62.63%)
  Link WS02006280WS02006229 (11.15%)
  Link WS02004404WS02004405 (5.37%)
  Link WS02006238WS02006235 (5.26%)
  Link YS02001793JiankangQianchi (3.93%)
  
  
  ********************************
  Highest Flow Instability Indexes
  ********************************
  Link WS02006113WS02006111 (39)
  Link YS02163601YS02164001 (36)
  Link YS02001619YS02001622 (35)
  Link YS02001629YS02163301 (35)
  Link YS02163301YS02001633 (34)
  
  
  *************************
  Routing Time Step Summary
  *************************
  Minimum Time Step           :     0.23 sec
  Average Time Step           :     1.09 sec
  Maximum Time Step           :     5.00 sec
  Percent in Steady State     :    -0.00
  Average Iterations per Step :     4.62
  Percent Not Converging      :    25.13
  
  
  ***************************
  Subcatchment Runoff Summary
  ***************************
  
  ------------------------------------------------------------------------------------------------------------------------------
                            Total      Total      Total      Total     Imperv       Perv      Total       Total     Peak  Runoff
                           Precip      Runon       Evap      Infil     Runoff     Runoff     Runoff      Runoff   Runoff   Coeff
  Subcatchment                 mm         mm         mm         mm         mm         mm         mm    10^6 ltr      LPS
  ------------------------------------------------------------------------------------------------------------------------------
  sub0                      12.16       0.00       0.00       0.65      11.27       0.20      11.47        0.01     1.99   0.943
  sub1                      12.16       0.00       0.00       1.12      10.73       0.22      10.95        0.07    14.96   0.900
  sub2                      12.16       0.00       0.00       4.23       7.58       0.27       7.85        0.07    15.08   0.646
  sub3                      12.16       0.00       0.00       4.29       7.54       0.21       7.75        0.17    34.61   0.637
  sub4                      12.16       0.00       0.00       1.19      10.57       0.14      10.71        0.22    42.34   0.881
  sub5                      12.16       0.00       0.00       0.69      11.21       0.16      11.38        0.13    26.18   0.935
  sub7                      12.16       0.00       0.00       0.88      11.01       0.22      11.22        0.04     7.95   0.923
  sub8                      12.16       0.00       0.00       0.89      11.00       0.21      11.20        0.07    14.89   0.921
  sub9                      12.16       0.00       0.00       0.89      10.99       0.21      11.20        0.05    11.18   0.921
  sub10                     12.16       0.00       0.00       0.79      11.10       0.18      11.28        0.12    25.49   0.928
  sub11                     12.16       0.00       0.00       0.78      11.12       0.19      11.31        0.13    27.35   0.930
  sub12                     12.16       0.00       0.00       1.27      10.53       0.31      10.85        0.09    20.52   0.892
  sub14                     12.16       0.00       0.00       0.89      10.99       0.20      11.20        0.11    22.08   0.920
  sub15                     12.16       0.00       0.00       3.28       8.45       0.37       8.82        0.15    32.49   0.725
  sub16                     12.16       0.00       0.00       3.51       8.11       0.50       8.61        0.09    20.36   0.708
  sub17                     12.16       0.00       0.00       3.41       8.23       0.48       8.71        0.07    16.72   0.716
  sub22                     12.16       0.00       0.00       4.80       6.89       0.43       7.32        0.46   102.62   0.602
  sub23                     12.16       0.00       0.00       4.05       7.62       0.45       8.07        0.38    85.35   0.663
  sub60                     12.16       0.00       0.00       1.42       8.82       0.04       8.86        2.69   336.84   0.729
  sub61                     12.16       0.00       0.00       2.01       8.94       0.06       9.00        2.78   399.45   0.740
  sub62                     12.16       0.00       0.00       0.92       9.73       0.05       9.78        3.01   415.79   0.804
  sub63                     12.16       0.00       0.00       3.46       7.82       0.06       7.88        2.39   361.21   0.648
  sub64                     12.16       0.00       0.00       1.78       8.47       0.04       8.51        2.59   320.97   0.699
  sub65                     12.16       0.00       0.00       1.54       8.61       0.04       8.65        2.66   326.54   0.711
  sub66                     12.16       0.00       0.00       3.49       7.26       0.04       7.30        2.24   290.53   0.600
  sub67                     12.16       0.00       0.00       0.91      10.24       0.07      10.31        3.18   494.23   0.848
  sub68                     12.16       0.00       0.00       1.64       9.40       0.06       9.46        2.91   432.52   0.778
  sub69                     12.16       0.00       0.00       1.73       9.72       0.09       9.82        2.29   383.95   0.807
  sub70                     12.16      10.02       0.00       6.98      13.09       0.56      13.65        3.12   394.93   0.615
  sub71                     12.16       0.00       0.00       0.93       9.48       0.05       9.53        2.25   296.34   0.783
  sub72                     12.16       0.00       0.00       0.83       7.62       0.02       7.64        1.56   151.13   0.628
  1                         12.16      13.29       0.00       1.37      14.64       3.94      18.57        4.36   399.24   0.730
  2                         12.16       0.00       0.00       3.02       2.89       1.65       4.55        1.82   245.52   0.374
  
  
  ****************************
  Subcatchment Washoff Summary
  ****************************
  
  ------------------------------------------------------------------------------------------
                                 COD            SS            TN            TP         NH4-N
  Subcatchment                    kg            kg            kg            kg            kg
  ------------------------------------------------------------------------------------------
  sub0                         2.176         4.147         0.037         0.003         0.018
  sub1                         9.268        18.138         0.173         0.012         0.083
  sub2                         5.563        10.570         0.119         0.008         0.054
  sub3                        13.747        25.918         0.288         0.019         0.132
  sub4                        21.530        42.606         0.429         0.026         0.205
  sub5                        21.300        41.103         0.378         0.029         0.183
  sub7                         4.748         9.424         0.090         0.006         0.043
  sub8                         7.142        14.500         0.143         0.008         0.069
  sub9                         6.100        12.212         0.118         0.007         0.057
  sub10                       17.532        34.266         0.321         0.023         0.155
  sub11                       17.086        33.770         0.320         0.022         0.154
  sub12                       14.392        27.890         0.260         0.019         0.125
  sub14                       13.021        25.823         0.247         0.016         0.119
  sub15                       16.182        30.744         0.313         0.023         0.146
  sub16                       10.318        19.555         0.197         0.015         0.092
  sub17                        9.471        17.789         0.175         0.014         0.082
  sub22                       48.821        90.813         0.932         0.070         0.434
  sub23                       29.138        56.181         0.627         0.041         0.287
  sub60                      203.703       376.194         4.083         0.248         1.956
  sub61                      251.300       461.579         4.699         0.320         2.261
  sub62                      262.762       491.326         5.157         0.324         2.474
  sub63                      185.047       334.594         3.739         0.261         1.731
  sub64                      253.867       452.095         4.687         0.339         2.235
  sub65                      260.106       465.192         4.834         0.344         2.309
  sub66                      146.558       263.078         3.037         0.197         1.417
  sub67                      388.205       718.566         6.963         0.510         3.363
  sub68                      276.714       513.393         5.318         0.356         2.539
  sub69                      247.676       464.012         4.658         0.325         2.225
  sub70                      413.256       778.342         8.287         0.572         3.877
  sub71                      173.740       327.842         3.597         0.206         1.720
  sub72                      136.329       239.316         2.558         0.174         1.230
  1                          280.724       531.718         5.751         0.398         2.660
  2                           35.485        61.812         1.030         0.062         0.437
  ------------------------------------------------------------------------------------------
  System                    3783.006      6994.507        73.566         4.996        34.873
  
  
  ******************
  Node Depth Summary
  ******************
  
  ---------------------------------------------------------------------------------
                                 Average  Maximum  Maximum  Time of Max    Reported
                                   Depth    Depth      HGL   Occurrence   Max Depth
  Node                 Type       Meters   Meters   Meters  days hr:min      Meters
  ---------------------------------------------------------------------------------
  WS02001211           JUNCTION     0.78     0.83     5.67     0  03:08        0.83
  WS02001212           JUNCTION     0.49     0.56     5.62     0  03:08        0.56
  WS02001213           JUNCTION     0.73     0.83     5.59     0  03:07        0.83
  WS02003069           JUNCTION     0.54     0.68     5.27     0  03:07        0.68
  WS02003072           JUNCTION     0.60     0.73     5.10     0  03:07        0.73
  WS02003073           JUNCTION     0.36     0.46     4.52     0  03:08        0.46
  WS02003060           JUNCTION     0.47     0.60     5.53     0  03:06        0.60
  WS02003066           JUNCTION     0.26     0.36     5.92     0  03:04        0.36
  WS02003059           JUNCTION     0.78     0.88     5.57     0  03:07        0.88
  WS02003067           JUNCTION     0.63     0.79     6.11     0  03:04        0.79
  WS02004401           JUNCTION     0.76     1.14     7.14     0  03:01        1.13
  WS02004402           JUNCTION     0.79     1.14     7.10     0  03:02        1.13
  WS02004403           JUNCTION     0.81     1.12     7.05     0  03:03        1.12
  WS02004404           JUNCTION     0.88     1.18     7.03     0  03:03        1.17
  WS02004406           JUNCTION     0.88     1.12     6.95     0  03:02        1.11
  WS02004409           JUNCTION     0.58     0.87     6.64     0  03:04        0.87
  WS02004410           JUNCTION     0.59     0.87     6.59     0  03:04        0.87
  WS02004411           JUNCTION     0.60     0.86     6.54     0  03:04        0.86
  WS02004412           JUNCTION     0.61     0.85     6.49     0  03:04        0.85
  WS02004413           JUNCTION     0.76     0.98     6.45     0  03:04        0.98
  WS02004405           JUNCTION     0.87     1.16     7.01     0  03:01        1.15
  WS02006109           JUNCTION     0.86     1.31     7.93     0  03:02        1.31
  WS02006110           JUNCTION     0.83     1.15     7.74     0  03:02        1.14
  WS02006111           JUNCTION     0.26     0.65     7.36     0  03:03        0.65
  WS02006112           JUNCTION     0.95     1.42     7.30     0  03:03        1.41
  WS02006113           JUNCTION     0.40     0.65     7.54     0  03:02        0.65
  WS02006115           JUNCTION     0.66     1.09     7.23     0  03:02        1.09
  WS02006116           JUNCTION     0.74     1.14     7.18     0  03:02        1.14
  WS02006230           JUNCTION     0.90     1.52     8.27     0  03:02        1.51
  WS02006231           JUNCTION     0.63     1.22     8.34     0  03:02        1.21
  WS02006232           JUNCTION     0.78     1.36     8.40     0  03:03        1.35
  WS02006234           JUNCTION     0.73     1.33     8.48     0  03:02        1.31
  WS02006235           JUNCTION     0.78     1.37     8.53     0  03:02        1.35
  WS02006238           JUNCTION     0.81     1.39     8.53     0  03:02        1.38
  WS02006240           JUNCTION     0.72     1.28     8.57     0  03:01        1.28
  WS02006242           JUNCTION     0.78     1.34     8.61     0  03:02        1.33
  WS02006243           JUNCTION     0.67     1.21     8.63     0  03:02        1.20
  WS02006245           JUNCTION     0.65     1.17     8.66     0  03:02        1.16
  WS02006247           JUNCTION     0.66     1.17     8.67     0  03:01        1.17
  WS02006248           JUNCTION     0.60     1.10     8.68     0  03:04        1.09
  WS02006249           JUNCTION     0.62     1.09     8.69     0  02:56        1.09
  WS02006239           JUNCTION     0.77     1.35     8.56     0  03:02        1.34
  WS02006251           JUNCTION     0.60     1.57     9.24     0  02:56        1.18
  WS02006252           JUNCTION     0.38     1.07     9.31     0  02:56        0.72
  WS02006253           JUNCTION     0.63     2.42    10.06     0  02:56        1.22
  WS02006256           JUNCTION     1.76     2.35     9.28     0  00:00        2.35
  WS02004138           JUNCTION     0.19     0.20     7.45     0  00:00        0.19
  WS02004139           JUNCTION     0.72     0.77     5.68     0  03:08        0.77
  WS02004407           JUNCTION     0.26     0.37     6.68     0  03:03        0.37
  WS02006228           JUNCTION     0.88     1.44     8.09     0  03:02        1.43
  WS02006229           JUNCTION     0.87     1.49     8.18     0  03:02        1.48
  WS02006280           JUNCTION     0.06     0.20     8.47     0  03:02        0.20
  WS02006284           JUNCTION     0.36     0.56     8.96     0  03:02        0.56
  WS02006287           JUNCTION     0.09     0.30     9.25     0  03:01        0.30
  WSF200               JUNCTION     0.26     0.40     5.64     0  03:04        0.40
  HS02004901           JUNCTION     0.12     0.29    10.12     0  03:01        0.29
  HS02004881           JUNCTION     0.01     0.04     9.07     0  02:56        0.04
  HS02004876           JUNCTION     0.04     0.12     9.15     0  03:01        0.12
  HS02004870           JUNCTION     0.01     0.07     9.35     0  03:01        0.07
  HS02004862           JUNCTION     0.02     0.08     9.46     0  03:01        0.08
  HS02004856           JUNCTION     0.08     0.13     9.55     0  03:01        0.13
  HS02004852           JUNCTION     0.01     0.05     9.56     0  03:01        0.05
  HS02004848           JUNCTION     0.01     0.05     9.65     0  03:01        0.05
  HS02004842           JUNCTION     0.33     0.38     9.65     0  03:01        0.38
  HS02004837           JUNCTION     0.03     0.07     9.65     0  03:01        0.07
  HS02004830           JUNCTION     0.04     0.08     9.55     0  03:01        0.08
  HS02004824           JUNCTION     0.02     0.06     9.47     0  03:01        0.06
  HS02004817           JUNCTION     0.44     0.61     9.45     0  03:01        0.61
  HS02004807           JUNCTION     0.12     0.28     9.45     0  03:01        0.28
  HS02004802           JUNCTION     0.16     0.31     9.44     0  03:01        0.31
  HS02004799           JUNCTION     0.11     0.35     9.56     0  03:01        0.35
  HS02004792           JUNCTION     0.03     0.15     9.67     0  03:01        0.15
  HS02004788           JUNCTION     0.02     0.11    10.01     0  03:01        0.11
  HS02004785           JUNCTION     0.04     0.18    10.09     0  03:01        0.18
  HS02004777           JUNCTION     0.14     0.31    10.11     0  03:01        0.31
  HS02004770           JUNCTION     0.11     0.29    10.12     0  03:01        0.29
  HS02004480           JUNCTION     0.08     0.28     9.52     0  03:01        0.28
  HS02004479           JUNCTION     0.11     0.32     9.52     0  03:01        0.32
  HS02004478           JUNCTION     0.06     0.20     9.42     0  03:01        0.20
  YS02001745           JUNCTION     0.74     0.91     8.43     0  02:59        0.91
  YS02001748           JUNCTION     1.15     1.49     8.57     0  02:28        1.35
  YS02001751           JUNCTION     1.33     1.57     8.45     0  02:17        1.55
  YS02001754           JUNCTION     1.59     1.82     8.43     0  02:55        1.81
  YS02001762           JUNCTION     1.79     2.03     8.43     0  02:55        2.02
  YS02001765           JUNCTION     1.74     1.98     8.43     0  02:55        1.97
  YS02001767           JUNCTION     1.70     1.94     8.43     0  02:55        1.93
  YS02001770           JUNCTION     1.70     1.92     8.42     0  02:57        1.91
  YS02001774           JUNCTION     1.77     1.98     8.40     0  02:55        1.97
  YS02001779           JUNCTION     1.51     1.68     8.37     0  02:36        1.68
  YS02001882           JUNCTION     0.50     1.62     8.34     0  02:59        1.61
  YS02001884           JUNCTION     0.60     1.72     8.34     0  03:00        1.71
  YS02001759           JUNCTION     1.82     2.07     8.44     0  02:54        2.06
  YS02001887           JUNCTION     0.68     1.80     8.33     0  03:00        1.79
  YS02001890           JUNCTION     0.71     1.81     8.32     0  02:55        1.80
  YS02001898           JUNCTION     0.47     1.56     8.30     0  02:59        1.55
  YS02001901           JUNCTION     0.59     1.67     8.28     0  02:59        1.67
  YS02001904           JUNCTION     0.57     1.63     8.26     0  03:13        1.63
  YS02001907           JUNCTION     0.91     1.96     8.25     0  02:44        1.96
  YS02001910           JUNCTION     0.69     1.77     8.28     0  02:46        1.77
  YS02001915           JUNCTION     0.49     1.58     8.30     0  02:46        1.57
  YS02001918           JUNCTION     0.25     1.25     8.32     0  02:46        1.25
  YS02001619           JUNCTION     1.30     1.61     8.54     0  02:27        1.47
  YS02001629           JUNCTION     1.65     1.85     8.40     0  02:27        1.84
  YS02001641           JUNCTION     1.75     1.93     8.37     0  02:36        1.93
  YS02001644           JUNCTION     1.76     1.92     8.35     0  02:34        1.92
  YS02001652           JUNCTION     1.60     2.16     8.76     0  02:19        1.88
  YS02001655           JUNCTION     1.36     2.20     9.05     0  02:18        1.71
  YS02001920           JUNCTION     0.35     1.33     8.33     0  02:46        1.31
  YS02001923           JUNCTION     0.20     1.08     8.34     0  02:46        1.07
  YS02001926           JUNCTION     0.26     0.91     8.35     0  02:46        0.89
  YS02001929           JUNCTION     0.15     0.68     8.37     0  02:45        0.67
  YS02001658           JUNCTION     1.09     2.10     9.25     0  03:33        1.51
  YS02001661           JUNCTION     0.85     2.16     9.57     0  03:33        1.56
  YS02001664           JUNCTION     0.38     0.57     8.50     0  04:05        0.57
  YS02001622           JUNCTION     1.32     1.62     8.52     0  02:27        1.50
  YS02001633           JUNCTION     1.74     1.94     8.40     0  02:34        1.94
  YS02001649           JUNCTION     1.80     2.05     8.44     0  02:38        2.05
  YS02001757           JUNCTION     1.92     2.17     8.43     0  03:22        2.16
  YS02001895           JUNCTION     0.47     1.56     8.31     0  02:59        1.56
  YS02001625           JUNCTION     1.60     1.78     8.38     0  02:27        1.78
  YS02163301           JUNCTION     1.68     1.91     8.42     0  02:28        1.87
  YS02163601           JUNCTION     1.80     1.99     8.39     0  02:36        1.98
  YS02164001           JUNCTION     1.73     1.92     8.38     0  02:35        1.92
  YS02001647           JUNCTION     1.58     1.80     8.41     0  02:39        1.79
  YSB1154              JUNCTION     0.25     0.47     9.52     0  03:01        0.47
  YSB6556              JUNCTION     0.15     0.35     9.52     0  03:01        0.35
  YSB1174              JUNCTION     0.20     0.41     9.52     0  03:01        0.41
  YSB1171              JUNCTION     0.41     0.62     9.52     0  03:01        0.62
  YS02006553           JUNCTION     0.91     1.96     8.25     0  02:57        1.96
  YS02006561           JUNCTION     0.28     1.08     7.74     0  02:47        1.07
  YS02006556           JUNCTION     0.88     1.92     8.23     0  03:01        1.92
  YS02006558           JUNCTION     0.92     1.96     8.23     0  03:00        1.95
  YS02001783           JUNCTION     0.48     1.47     7.61     0  02:45        1.46
  YS02001784           JUNCTION     0.51     1.65     7.72     0  02:34        1.40
  YS02001786           JUNCTION     0.45     1.74     7.77     0  02:34        1.25
  YS02001788           JUNCTION     0.39     1.48     7.46     0  02:34        1.12
  YS02001790           JUNCTION     0.51     1.96     7.60     0  06:23        1.29
  YS02001791           JUNCTION     0.48     2.72     8.19     0  04:36        1.27
  YS02001793           JUNCTION     0.69     3.25     8.08     0  04:34        1.80
  WSC                  OUTFALL      0.36     0.46     1.13     0  03:08        0.46
  JK-storage           STORAGE      2.81     5.80     6.60     0  02:01        5.80
  CC-storage           STORAGE      1.18     1.38     8.38     0  02:59        1.38
  XR-storage           STORAGE      6.56     7.72     5.72     0  02:57        7.72
  
  
  *******************
  Node Inflow Summary
  *******************
  
  -------------------------------------------------------------------------------------------------
                                  Maximum  Maximum                  Lateral       Total        Flow
                                  Lateral    Total  Time of Max      Inflow      Inflow     Balance
                                   Inflow   Inflow   Occurrence      Volume      Volume       Error
  Node                 Type           LPS      LPS  days hr:min    10^6 ltr    10^6 ltr     Percent
  -------------------------------------------------------------------------------------------------
  WS02001211           JUNCTION      7.35   389.55     0  05:58       0.207        10.1       0.405
  WS02001212           JUNCTION      0.00   391.63     0  05:58           0        10.1       0.255
  WS02001213           JUNCTION      0.00   393.59     0  05:57           0        10.1       0.288
  WS02003069           JUNCTION      0.32  1224.37     0  03:06     0.00902        20.8       0.188
  WS02003072           JUNCTION      0.00  1224.27     0  03:07           0        20.7       0.220
  WS02003073           JUNCTION      1.82  1226.22     0  03:07      0.0514        20.7       0.256
  WS02003060           JUNCTION     16.53  1223.92     0  03:06       0.466        20.8       0.176
  WS02003066           JUNCTION      0.00   829.88     0  03:05           0        10.3       0.052
  WS02003059           JUNCTION      0.00   396.61     0  05:57           0          10       0.413
  WS02003067           JUNCTION      0.00   829.72     0  03:04           0        10.4       0.104
  WS02004401           JUNCTION      0.00   831.75     0  03:03           0        10.6       0.235
  WS02004402           JUNCTION      0.00   831.89     0  03:03           0        10.6       0.218
  WS02004403           JUNCTION      0.00   832.06     0  03:03           0        10.6       0.196
  WS02004404           JUNCTION      0.16   831.85     0  03:03     0.00457        10.6       0.142
  WS02004406           JUNCTION      0.00   831.23     0  03:03           0        10.5       0.348
  WS02004409           JUNCTION      0.00   830.83     0  03:03           0        10.5       0.198
  WS02004410           JUNCTION      0.00   830.15     0  03:03           0        10.5       0.219
  WS02004411           JUNCTION      0.00   829.81     0  03:04           0        10.4       0.220
  WS02004412           JUNCTION      0.00   829.69     0  03:04           0        10.4       0.232
  WS02004413           JUNCTION      0.00   829.69     0  03:04           0        10.4       0.336
  WS02004405           JUNCTION      0.04   832.09     0  03:03     0.00107        10.5       0.216
  WS02006109           JUNCTION      1.23   818.24     0  03:02      0.0347        10.7       0.216
  WS02006110           JUNCTION      0.00   818.27     0  03:02           0        10.7       0.207
  WS02006111           JUNCTION      0.00   817.70     0  03:02           0        10.6       0.050
  WS02006112           JUNCTION     16.72   831.05     0  03:03      0.0747        10.7       0.290
  WS02006113           JUNCTION      0.00   818.16     0  03:02           0        10.6       0.115
  WS02006115           JUNCTION      0.00   831.15     0  03:03           0        10.7       0.236
  WS02006116           JUNCTION      0.00   831.31     0  03:03           0        10.6       0.223
  WS02006230           JUNCTION     10.28   532.07     0  05:42        0.29        8.53       0.200
  WS02006231           JUNCTION      0.00   521.72     0  05:40           0        8.26       0.158
  WS02006232           JUNCTION      0.00   521.81     0  05:42           0        8.28       0.223
  WS02006234           JUNCTION      0.00   522.43     0  05:42           0        8.29       0.133
  WS02006235           JUNCTION      0.00   522.86     0  05:41           0        8.34       0.144
  WS02006238           JUNCTION      0.00   394.32     0  04:50           0        5.06       0.172
  WS02006240           JUNCTION      0.00   394.39     0  04:50           0        5.04       0.320
  WS02006242           JUNCTION      0.00   394.50     0  04:50           0        5.04       0.369
  WS02006243           JUNCTION      0.00   394.84     0  04:50           0        5.05       0.205
  WS02006245           JUNCTION      0.00   394.26     0  04:49           0        5.06       0.246
  WS02006247           JUNCTION      0.00   394.76     0  04:50           0        5.07       0.183
  WS02006248           JUNCTION      0.00   395.46     0  04:50           0        5.07       0.128
  WS02006249           JUNCTION      0.00   487.82     0  03:00           0        5.63       0.204
  WS02006239           JUNCTION      0.00   394.41     0  04:50           0        5.05       0.238
  WS02006251           JUNCTION      0.08   487.70     0  03:01     0.00217        5.68       0.183
  WS02006252           JUNCTION      0.00   400.00     0  03:00           0        5.22       0.010
  WS02006253           JUNCTION      1.99   136.76     0  02:55     0.00928       0.459       1.056
  WS02006256           JUNCTION      0.00   983.00     0  00:00           0        9.75      -0.004
  WS02004138           JUNCTION      0.00   380.00     0  00:00           0        9.98       0.066
  WS02004139           JUNCTION      0.32   396.51     0  00:00     0.00905        9.98       0.459
  WS02004407           JUNCTION      0.00   831.00     0  03:03           0        10.5       0.088
  WS02006228           JUNCTION      0.00   816.97     0  03:02           0        10.7       0.166
  WS02006229           JUNCTION      0.00   817.34     0  03:02           0        10.7       0.133
  WS02006280           JUNCTION      0.00   413.63     0  03:02           0        2.17       0.007
  WS02006284           JUNCTION      0.10   413.58     0  03:02      0.0027        2.17       0.041
  WS02006287           JUNCTION      0.00   413.23     0  03:01           0        2.17       0.033
  WSF200               JUNCTION      0.00   829.94     0  03:05           0        10.3       0.053
  HS02004901           JUNCTION     20.36    20.36     0  03:01      0.0902      0.0904       1.990
  HS02004881           JUNCTION      7.95    84.19     0  03:01      0.0378        0.41       0.116
  HS02004876           JUNCTION     14.96    76.76     0  03:01      0.0728       0.373       0.148
  HS02004870           JUNCTION     14.89    62.16     0  03:01      0.0716         0.3       0.037
  HS02004862           JUNCTION     15.28    47.69     0  03:01      0.0788       0.229       0.077
  HS02004856           JUNCTION     11.18    32.73     0  03:01      0.0539       0.152       0.963
  HS02004852           JUNCTION      0.00    21.94     0  03:01           0      0.0979       0.059
  HS02004848           JUNCTION     34.61    34.61     0  03:01       0.174       0.174       0.028
  HS02004842           JUNCTION      0.00    12.41     0  03:01           0      0.0895      16.997
  HS02004837           JUNCTION     31.84    43.95     0  03:01       0.303        0.38       0.214
  HS02004830           JUNCTION      0.15    43.86     0  03:01     0.00423        0.37       0.334
  HS02004824           JUNCTION     42.39    85.90     0  03:01       0.225       0.594       0.091
  HS02004817           JUNCTION      0.60    86.29     0  03:01      0.0169        0.61       2.809
  HS02004807           JUNCTION     27.35   112.32     0  03:01       0.131       0.726       0.604
  HS02004802           JUNCTION      0.00   111.37     0  03:01           0       0.723       0.549
  HS02004799           JUNCTION     22.08   258.93     0  03:01       0.107        1.24       0.223
  HS02004792           JUNCTION    102.90   238.01     0  03:01        0.47        1.14       0.036
  HS02004788           JUNCTION     34.16   135.95     0  03:01       0.199       0.669       0.059
  HS02004785           JUNCTION      0.15   103.52     0  03:01     0.00423       0.471       0.106
  HS02004777           JUNCTION      0.03   104.16     0  03:01    0.000846       0.472       1.115
  HS02004770           JUNCTION     85.35   105.11     0  03:01       0.385       0.473       0.659
  HS02004480           JUNCTION      0.00   302.46     0  03:01           0        1.46       0.076
  HS02004479           JUNCTION      0.00    44.91     0  03:02           0       0.232       0.317
  HS02004478           JUNCTION      0.00   413.10     0  03:01           0        2.17       0.014
  YS02001745           JUNCTION    336.84   385.40     0  02:26        2.69         2.7       0.406
  YS02001748           JUNCTION      0.04   543.88     0  02:26     0.00127        2.69       0.767
  YS02001751           JUNCTION      0.01   359.09     0  02:17     0.00031        2.66       0.904
  YS02001754           JUNCTION      0.26   342.85     0  03:01     0.00733        2.64       0.941
  YS02001762           JUNCTION      0.00   290.72     0  02:38           0        1.95       1.097
  YS02001765           JUNCTION      0.00   291.61     0  02:38           0        1.95       1.259
  YS02001767           JUNCTION      0.54   292.46     0  02:38      0.0151        1.97       1.828
  YS02001770           JUNCTION    415.94   533.15     0  03:01        3.01        3.19       0.984
  YS02001774           JUNCTION      0.00   533.32     0  03:01           0        1.39       1.821
  YS02001779           JUNCTION      0.01   533.69     0  03:01    0.000141        1.36       1.128
  YS02001882           JUNCTION      0.00    32.71     0  02:35           0       0.019      14.346
  YS02001884           JUNCTION      0.00    65.68     0  02:35           0      0.0575      12.024
  YS02001759           JUNCTION    399.49   573.13     0  02:38        2.78        4.51       0.505
  YS02001887           JUNCTION    494.68   494.85     0  03:01        3.19        3.23       0.262
  YS02001890           JUNCTION      0.00   495.54     0  03:01           0        3.18       0.297
  YS02001898           JUNCTION      0.00   495.27     0  03:01           0        3.16       0.098
  YS02001901           JUNCTION      0.00   495.93     0  03:01           0        3.16       0.227
  YS02001904           JUNCTION      0.00   495.68     0  03:01           0        3.16       0.204
  YS02001907           JUNCTION      0.00   942.65     0  03:01           0        7.02       0.347
  YS02001910           JUNCTION      0.00   449.85     0  03:00           0        3.87       0.308
  YS02001915           JUNCTION    296.36   449.07     0  03:00        2.25         3.9       0.160
  YS02001918           JUNCTION      0.00   211.70     0  03:30           0        1.65       0.120
  YS02001619           JUNCTION    290.53   290.53     0  03:01        2.24        2.24       0.545
  YS02001629           JUNCTION      0.00   213.09     0  02:17           0        1.69       1.720
  YS02001641           JUNCTION      0.00   395.65     0  02:35           0        4.25       0.493
  YS02001644           JUNCTION    321.01  1311.88     0  03:00        2.59        9.02       0.284
  YS02001652           JUNCTION      0.00   379.70     0  03:01           0        2.35       0.988
  YS02001655           JUNCTION      0.15   395.91     0  02:18     0.00434        2.38       1.028
  YS02001920           JUNCTION      2.87   202.20     0  02:46      0.0809        1.64       0.187
  YS02001923           JUNCTION      0.04   222.27     0  02:46     0.00106        1.56       0.051
  YS02001926           JUNCTION      0.05   169.41     0  02:46     0.00147        1.56       0.210
  YS02001929           JUNCTION    151.13   151.13     0  03:01        1.56        1.56       0.036
  YS02001658           JUNCTION      0.00   601.90     0  02:23           0        2.42       0.932
  YS02001661           JUNCTION      0.00   636.54     0  02:39           0        2.89      -0.626
  YS02001664           JUNCTION    361.21   361.21     0  03:01        2.38        2.88       0.250
  YS02001622           JUNCTION      0.00   291.59     0  03:01           0        2.22       1.439
  YS02001633           JUNCTION    326.74   397.63     0  02:35        2.66        4.31       0.749
  YS02001649           JUNCTION      0.00   826.95     0  02:35           0        5.26       0.704
  YS02001757           JUNCTION      0.00  1577.41     0  02:35           0        9.91       0.941
  YS02001895           JUNCTION      0.00   496.10     0  03:01           0        3.17       0.167
  YS02001625           JUNCTION      0.00   290.82     0  03:01           0        2.19       1.811
  YS02163301           JUNCTION      0.00   199.18     0  02:20           0        1.67       1.459
  YS02163601           JUNCTION      0.11   397.17     0  02:35      0.0031        4.27       0.705
  YS02164001           JUNCTION      0.00   397.15     0  02:35           0        4.25       0.473
  YS02001647           JUNCTION      0.00   609.44     0  03:01           0        4.29       0.660
  YSB1154              JUNCTION     26.18    26.18     0  03:01       0.129        0.13       1.130
  YSB6556              JUNCTION      0.00    25.82     0  03:01           0        0.13       0.969
  YSB1174              JUNCTION     20.52    20.52     0  03:01      0.0948      0.0953       1.368
  YSB1171              JUNCTION      0.00    45.30     0  03:01           0       0.231       2.821
  YS02006553           JUNCTION      0.00   704.18     0  03:31           0        6.56       0.239
  YS02006561           JUNCTION      0.00   982.45     0  03:00           0        9.44       0.007
  YS02006556           JUNCTION      0.00   704.18     0  03:31           0        6.57       0.175
  YS02006558           JUNCTION    433.40   983.44     0  03:00        2.93        9.47       0.055
  YS02001783           JUNCTION      0.00   982.90     0  03:01           0        9.44       0.023
  YS02001784           JUNCTION      1.06   983.78     0  03:00      0.0299        9.47       0.038
  YS02001786           JUNCTION      0.06   984.21     0  03:00     0.00159        9.47       0.036
  YS02001788           JUNCTION      0.07   983.73     0  03:00       0.002        9.46       0.023
  YS02001790           JUNCTION      0.15   984.05     0  03:01     0.00437        9.47       0.008
  YS02001791           JUNCTION      0.00   983.87     0  03:00           0        9.47       0.013
  YS02001793           JUNCTION      0.00   984.44     0  03:00           0        9.47      -0.009
  WSC                  OUTFALL       0.00  1226.40     0  03:08           0        20.7       0.000
  JK-storage           STORAGE       0.00   984.59     0  03:00           0        9.62     -10.317
  CC-storage           STORAGE       0.00  1577.15     0  02:35           0        8.93       0.719
  XR-storage           STORAGE     844.76   844.76     0  03:01        11.8        12.4      -0.004
  
  
  **********************
  Node Surcharge Summary
  **********************
  
  Surcharging occurs when water rises above the top of the highest conduit.
  ---------------------------------------------------------------------
                                               Max. Height   Min. Depth
                                   Hours       Above Crown    Below Rim
  Node                 Type      Surcharged         Meters       Meters
  ---------------------------------------------------------------------
  WS02004401           JUNCTION        0.32          0.137        1.523
  WS02004402           JUNCTION        0.36          0.140        1.600
  WS02004403           JUNCTION        0.38          0.125        1.905
  WS02004404           JUNCTION        0.78          0.177        2.603
  WS02004406           JUNCTION        0.48          0.117        2.333
  WS02004405           JUNCTION        0.62          0.158        2.642
  WS02006109           JUNCTION        4.38          0.492        1.328
  WS02006110           JUNCTION        2.38          0.245        1.605
  WS02006112           JUNCTION        2.87          0.417        1.263
  WS02006115           JUNCTION        0.20          0.079        2.171
  WS02006116           JUNCTION        0.22          0.084        2.206
  WS02006230           JUNCTION        1.92          0.440        1.130
  WS02006231           JUNCTION        2.38          0.510        1.020
  WS02006232           JUNCTION        4.11          0.664        0.816
  WS02006234           JUNCTION        3.41          0.606        0.634
  WS02006235           JUNCTION        3.67          0.659        0.631
  WS02006238           JUNCTION        3.78          0.671        0.759
  WS02006240           JUNCTION        3.26          0.569        0.821
  WS02006242           JUNCTION        3.51          0.607        0.213
  WS02006243           JUNCTION        2.78          0.500        0.270
  WS02006245           JUNCTION        2.69          0.462        0.388
  WS02006247           JUNCTION        2.71          0.459        0.301
  WS02006248           JUNCTION        2.41          0.375        0.005
  WS02006249           JUNCTION        2.49          0.390        0.000
  WS02006239           JUNCTION        3.44          0.609        0.681
  WS02006251           JUNCTION        1.57          0.538        0.642
  WS02006252           JUNCTION        3.11          0.670        0.430
  WS02006253           JUNCTION        1.60          1.379        1.101
  WS02006256           JUNCTION        6.71          2.050        0.000
  WS02006228           JUNCTION        4.35          0.609        1.591
  YS02001748           JUNCTION        5.31          0.412        0.778
  YS02001751           JUNCTION        5.49          0.568        0.632
  YS02001754           JUNCTION        5.70          0.774        0.376
  YS02001762           JUNCTION        5.87          1.035        0.115
  YS02001765           JUNCTION        5.84          0.979        0.121
  YS02001767           JUNCTION        5.81          0.939        0.091
  YS02001770           JUNCTION        5.80          0.891        0.029
  YS02001774           JUNCTION        5.86          0.980        0.070
  YS02001779           JUNCTION        5.67          0.680        0.000
  YS02001882           JUNCTION        0.90          0.620        0.210
  YS02001884           JUNCTION        0.93          0.660        0.210
  YS02001759           JUNCTION        5.89          1.072        0.138
  YS02001887           JUNCTION        1.00          0.747        0.203
  YS02001890           JUNCTION        1.02          0.760        0.000
  YS02001898           JUNCTION        0.87          0.530        0.210
  YS02001901           JUNCTION        0.96          0.674        0.196
  YS02001904           JUNCTION        0.94          0.634        0.216
  YS02001907           JUNCTION        1.78          0.950        0.000
  YS02001910           JUNCTION        1.07          0.774        0.326
  YS02001915           JUNCTION        0.89          0.583        0.417
  YS02001918           JUNCTION        0.71          0.252        0.558
  YS02001619           JUNCTION        5.48          0.610        0.000
  YS02001629           JUNCTION        5.48          0.470        0.000
  YS02001641           JUNCTION        5.85          0.935        0.165
  YS02001644           JUNCTION        5.85          0.920        0.000
  YS02001652           JUNCTION        5.73          1.130        0.000
  YS02001655           JUNCTION        5.51          1.200        0.000
  YS02001920           JUNCTION        0.74          0.326        0.814
  YS02001658           JUNCTION        5.34          1.104        0.196
  YS02001661           JUNCTION        0.24          1.093        0.297
  YS02001622           JUNCTION        5.51          0.620        0.000
  YS02001633           JUNCTION        5.83          0.924        0.136
  YS02001649           JUNCTION        5.87          1.050        0.000
  YS02001757           JUNCTION        5.98          1.173        0.037
  YS02001895           JUNCTION        0.88          0.563        0.187
  YS02001625           JUNCTION        5.76          0.780        0.000
  YS02163301           JUNCTION        5.81          0.905        0.125
  YS02163601           JUNCTION        5.87          0.989        0.091
  YS02164001           JUNCTION        5.84          0.918        0.182
  YS02001647           JUNCTION        5.75          0.802        0.098
  YS02006553           JUNCTION        1.89          0.965        0.225
  YS02006561           JUNCTION        0.77          0.277        0.873
  YS02006556           JUNCTION        1.31          0.883        0.467
  YS02006558           JUNCTION        1.26          0.860        0.540
  YS02001783           JUNCTION        1.06          0.671        0.929
  YS02001784           JUNCTION        1.03          0.849        0.641
  YS02001786           JUNCTION        0.98          0.936        0.494
  YS02001788           JUNCTION        0.93          0.683        0.797
  YS02001790           JUNCTION        1.87          1.157        0.000
  YS02001791           JUNCTION        2.19          1.920        0.000
  YS02001793           JUNCTION        2.51          2.253        0.347
  
  
  *********************
  Node Flooding Summary
  *********************
  
  Flooding refers to all water that overflows a node, whether it ponds or not.
  --------------------------------------------------------------------------
                                                             Total   Maximum
                                 Maximum   Time of Max       Flood    Ponded
                        Hours       Rate    Occurrence      Volume     Depth
  Node                 Flooded       LPS   days hr:min    10^6 ltr    Meters
  --------------------------------------------------------------------------
  WS02006249              1.52    264.75      0  03:01       0.541     0.000
  WS02006256              3.65    978.40      0  00:00       6.430     0.000
  YS02001779              2.44    533.39      0  03:01       1.336     0.000
  YS02001890              0.01      1.14      0  03:00       0.000     0.000
  YS02001907              0.58    394.00      0  03:01       0.443     0.000
  YS02001619              0.01     13.96      0  02:27       0.000     0.000
  YS02001629              0.01     29.40      0  02:27       0.000     0.000
  YS02001644              4.40   1310.84      0  03:00       6.908     0.000
  YS02001652              0.01     27.71      0  02:20       0.000     0.000
  YS02001655              0.01    303.52      0  02:19       0.001     0.000
  YS02001622              0.01     15.88      0  02:27       0.000     0.000
  YS02001649              0.03     33.13      0  03:34       0.001     0.000
  YS02001625              1.21    236.14      0  03:01       0.465     0.000
  YS02001790              0.01    132.62      0  06:23       0.000     0.000
  YS02001791              0.01    289.09      0  04:36       0.000     0.000
  JK-storage              0.84    819.41      0  02:40       0.974     0.000
  XR-storage              3.02    464.76      0  03:01       1.818     0.000
  
  
  **********************
  Storage Volume Summary
  **********************
  
  --------------------------------------------------------------------------------------------------
                         Average     Avg  Evap Exfil       Maximum     Max    Time of Max    Maximum
                          Volume    Pcnt  Pcnt  Pcnt        Volume    Pcnt     Occurrence    Outflow
  Storage Unit           1000 m3    Full  Loss  Loss       1000 m3    Full    days hr:min        LPS
  --------------------------------------------------------------------------------------------------
  JK-storage               0.141      49     0     0         0.291     100       0  02:01     983.00
  CC-storage               3.277      21     0     0         3.845      25       0  02:59     400.00
  XR-storage               0.787      85     0     0         0.926     100       0  02:57     380.00
  
  
  ***********************
  Outfall Loading Summary
  ***********************
  
  ---------------------------------------------------------------------------------------------------------------------------------
                         Flow       Avg       Max       Total         Total         Total         Total         Total         Total
                         Freq      Flow      Flow      Volume           COD            SS            TN            TP         NH4-N
  Outfall Node           Pcnt       LPS       LPS    10^6 ltr            kg            kg            kg            kg            kg
  ---------------------------------------------------------------------------------------------------------------------------------
  WSC                   99.98    827.72   1226.40      20.684      2428.337      4156.659       154.073        18.084        93.157
  ---------------------------------------------------------------------------------------------------------------------------------
  System                99.98    827.72   1226.40      20.684      2428.337      4156.659       154.073        18.084        93.157
  
  
  ********************
  Link Flow Summary
  ********************
  
  -----------------------------------------------------------------------------
                                 Maximum  Time of Max   Maximum    Max/    Max/
                                  |Flow|   Occurrence   |Veloc|    Full    Full
  Link                 Type          LPS  days hr:min     m/sec    Flow   Depth
  -----------------------------------------------------------------------------
  WS02003066WSF200     CONDUIT    829.94     0  03:05      2.94    0.14    0.30
  WS02006287WS02006284 CONDUIT    413.49     0  03:02      2.04    0.19    0.30
  WS02006284WS02006280 CONDUIT    413.63     0  03:02      2.28    0.17    0.28
  WS02006280WS02006229 CONDUIT    413.63     0  03:02      3.60    0.09    0.25
  WS02006229WS02006228 CONDUIT    816.97     0  03:02      1.63    2.71    1.00
  WS02006256WS02006235 CONDUIT    288.60     0  00:00      4.23    3.05    1.00
  WS02006253WS02006251 CONDUIT    110.45     0  07:01      0.60    0.33    1.00
  WS02006252WS02006251 CONDUIT    401.03     0  05:10      3.19    1.47    1.00
  WS02006251WS02006249 CONDUIT    487.82     0  03:00      1.27    1.41    1.00
  WS02006249WS02006248 CONDUIT    395.46     0  04:50      1.13    2.17    1.00
  WS02006248WS02006247 CONDUIT    394.76     0  04:50      1.10    0.86    1.00
  WS02006247WS02006245 CONDUIT    394.26     0  04:49      1.07    3.13    1.00
  WS02006245WS02006243 CONDUIT    394.84     0  04:50      1.08    1.17    1.00
  WS02006243WS02006242 CONDUIT    394.50     0  04:50      1.03    0.84    1.00
  WS02006242WS02006240 CONDUIT    394.39     0  04:50      1.02    1.57    1.00
  WS02006240WS02006239 CONDUIT    394.41     0  04:50      1.02    1.24    1.00
  WS02006239WS02006238 CONDUIT    394.32     0  04:50      1.02    1.26    1.00
  WS02006238WS02006235 CONDUIT    394.18     0  04:50      1.46    0.88    1.00
  WS02006235WS02006234 CONDUIT    522.43     0  05:42      1.36    5.51    1.00
  WS02006234WS02006232 CONDUIT    521.81     0  05:42      1.39    1.06    1.00
  WS02006232WS02006231 CONDUIT    521.72     0  05:40      1.36    1.09    1.00
  WS02006231WS02006230 CONDUIT    521.79     0  05:42      1.36    7.91    1.00
  WS02006230WS02006229 CONDUIT    531.92     0  05:42      1.38   11.84    1.00
  WS02006228WS02006109 CONDUIT    817.01     0  03:02      1.63    3.57    1.00
  WS02006116WS02004401 CONDUIT    831.75     0  03:03      1.06    1.15    1.00
  WS02006115WS02006116 CONDUIT    831.31     0  03:03      1.06    1.07    1.00
  WS02006113WS02006111 CONDUIT    817.70     0  03:02      2.59    0.98    0.81
  WS02006112WS02006115 CONDUIT    831.15     0  03:03      1.06    0.49    1.00
  WS02006111WS02006112 CONDUIT    818.46     0  03:03      1.74    0.39    0.90
  WS02006110WS02006113 CONDUIT    818.16     0  03:02      1.76    0.74    0.90
  WS02006109WS02006110 CONDUIT    818.27     0  03:02      1.63    1.57    1.00
  WS02004411WS02004412 CONDUIT    829.69     0  03:04      1.16    1.18    0.85
  WS02004401WS02004402 CONDUIT    831.89     0  03:03      1.06    1.00    1.00
  WS02004413WS02003067 CONDUIT    829.72     0  03:04      1.42    0.36    0.70
  WS02004412WS02004413 CONDUIT    829.69     0  03:04      1.10    0.56    0.91
  WS02004410WS02004411 CONDUIT    829.81     0  03:04      1.15    1.13    0.86
  WS02004409WS02004410 CONDUIT    830.15     0  03:03      1.15    1.07    0.87
  WS02004407WS02004409 CONDUIT    830.83     0  03:03      1.65    0.29    0.62
  WS02004406WS02004407 CONDUIT    831.00     0  03:03      1.45    0.37    0.69
  WS02004405WS02004406 CONDUIT    831.23     0  03:03      1.06    1.64    1.00
  WS02004404WS02004405 CONDUIT    832.05     0  03:03      1.06    8.15    1.00
  WS02004403WS02004404 CONDUIT    831.69     0  03:03      1.06    0.60    1.00
  WS02004402WS02004403 CONDUIT    832.06     0  03:03      1.06    1.20    1.00
  WS02004139WS02001211 CONDUIT    382.20     0  05:58      0.90    0.48    0.63
  WS02004138WS02004139 CONDUIT    396.19     0  00:00      3.65    0.08    0.46
  WS02003067WS02003066 CONDUIT    829.88     0  03:05      1.54    0.27    0.48
  WS02001213WS02003059 CONDUIT    396.61     0  05:57      0.88    0.65    0.84
  WS02001212WS02001213 CONDUIT    393.59     0  05:57      1.32    0.61    0.53
  WS02001211WS02001212 CONDUIT    391.63     0  05:58      0.78    0.30    0.69
  WS02003072WS02003073 CONDUIT   1224.40     0  03:07      1.90    2.64    0.55
  WS02003069WS02003072 CONDUIT   1224.27     0  03:07      1.77    0.59    0.59
  WS02003060WS02003069 CONDUIT   1224.05     0  03:06      1.99    0.48    0.54
  WS02003059WS02003060 CONDUIT    400.41     0  05:57      0.95    0.26    0.74
  HS02004901HS02004770 CONDUIT     20.52     0  03:01      0.07    0.08    0.42
  HS02004876HS02004881 CONDUIT     76.55     0  03:01      0.95    0.81    0.12
  HS02004870HS02004876 CONDUIT     61.90     0  03:01      0.65    0.04    0.14
  HS02004842HS02004848 CONDUIT     12.41     0  03:01      0.06    0.01    0.31
  HS02004837HS02004842 CONDUIT     12.98     0  03:02      0.42    0.01    0.32
  HS02004830HS02004837 CONDUIT     43.71     0  03:01      0.57    0.04    0.11
  HS02004824HS02004830 CONDUIT     43.67     0  03:01      0.59    0.06    0.11
  HS02004817HS02004824 CONDUIT     85.69     0  03:01      0.26    0.04    0.48
  HS02004770HS02004777 CONDUIT    104.13     0  03:01      0.35    0.19    0.43
  HS02004799HS02004480 CONDUIT    258.31     0  03:01      0.83    0.33    0.44
  HS02004792HS02004799 CONDUIT    237.06     0  03:01      0.95    0.15    0.36
  HS02004788HS02004792 CONDUIT    135.43     0  03:01      1.06    0.09    0.18
  HS02004785HS02004788 CONDUIT    103.22     0  03:02      0.71    0.78    0.21
  HS02004777HS02004785 CONDUIT    103.37     0  03:01      0.42    0.13    0.35
  HS02004480HS02004478 CONDUIT    302.30     0  03:01      1.26    1.27    0.34
  HS02004479HS02004480 CONDUIT     46.30     0  03:02      0.32    0.04    0.43
  HS02004862HS02004870 CONDUIT     47.43     0  03:01      0.66    0.05    0.10
  HS02004848HS02004852 CONDUIT     21.94     0  03:01      0.45    0.02    0.07
  HS02004856HS02004862 CONDUIT     32.47     0  03:01      0.48    0.03    0.10
  HS02004852HS02004856 CONDUIT     21.85     0  03:02      0.25    0.02    0.13
  HS02004802HS02004478 CONDUIT    111.52     0  03:02      0.45    0.10    0.36
  HS02004478WS02006287 CONDUIT    413.23     0  03:01      1.75    0.12    0.26
  HS02004817HS02004807 CONDUIT     86.14     0  03:01      0.19    0.05    0.63
  HS02004807HS02004802 CONDUIT    111.37     0  03:01      0.38    0.21    0.42
  YS02001759YS02001757 CONDUIT    572.41     0  02:38      0.73    0.41    1.00
  YS02001762YS02001759 CONDUIT    291.07     0  02:38      0.37    0.34    1.00
  YS02001765YS02001762 CONDUIT    290.72     0  02:38      0.37    0.27    1.00
  YS02001770YS02001767 CONDUIT    291.93     0  02:38      0.37    1.16    1.00
  YS02001774YS02001770 CONDUIT    533.32     0  03:01      0.68    0.34    1.00
  YS02001779YS02001774 CONDUIT    533.69     0  03:01      0.68    0.27    1.00
  YS02001649YS02001757 CONDUIT    827.24     0  02:35      1.05    0.50    1.00
  YS02001767YS02001765 CONDUIT    291.61     0  02:38      0.37    0.37    1.00
  YS02006561YS02001783 CONDUIT    982.90     0  03:01      2.15    0.51    1.00
  YS02001783YS02001784 CONDUIT    982.72     0  03:00      1.96    1.35    1.00
  YS02001784YS02001785 CONDUIT    984.16     0  03:00      1.96    2.29    1.00
  YS02001788YS02001790 CONDUIT    983.90     0  03:01      2.44    0.73    1.00
  YS02001790YS02001791 CONDUIT    983.87     0  03:00      2.88    1.07    1.00
  YS02001791YS02001793 CONDUIT    984.44     0  03:00      5.76    0.42    1.00
  YS02001910YS02001907 CONDUIT    449.38     0  03:00      0.57    0.25    1.00
  YS02001786YS02001788 CONDUIT    983.66     0  03:00      2.31    1.90    1.00
  YS02001915YS02001910 CONDUIT    449.85     0  03:00      0.59    0.22    1.00
  YS02001918YS02001915 CONDUIT    247.61     0  03:31      0.44    0.14    1.00
  YS02001923YS02001920 CONDUIT    199.33     0  02:46      0.71    0.09    1.00
  YS02001926YS02001923 CONDUIT    222.23     0  02:46      0.83    0.32    0.88
  YS02001929YS02001926 CONDUIT    169.36     0  02:46      0.89    0.08    0.78
  YS02001920YS02001918 CONDUIT    211.70     0  03:30      0.70    0.20    1.00
  YS02001629YS02163301 CONDUIT    199.18     0  02:20      0.25    0.25    1.00
  YS02001619YS02001622 CONDUIT    291.59     0  03:01      0.61    0.43    1.00
  YS02001622YS02001625 CONDUIT    290.82     0  03:01      0.37    0.16    1.00
  YS02001625YS02001629 CONDUIT    213.09     0  02:17      0.27    0.10    1.00
  YS02163301YS02001633 CONDUIT    200.45     0  02:27      0.26    0.19    1.00
  YS02163601YS02164001 CONDUIT    397.15     0  02:35      0.51    0.35    1.00
  YS02164001YS02001641 CONDUIT    395.65     0  02:35      0.50    0.54    1.00
  YS02001641YS02001644 CONDUIT    397.93     0  02:29      0.51    1.29    1.00
  YS02001647YS02001649 CONDUIT    609.44     0  03:01      0.78    0.32    1.00
  YS02006553YS02006556 CONDUIT    704.18     0  03:31      0.90    0.60    1.00
  YS02006556YS02006558 CONDUIT    704.53     0  03:31      0.90    0.56    1.00
  YSB6556YSB1171       CONDUIT     25.76     0  03:03      0.09    0.03    0.70
  YS02001907YS02006553 CONDUIT    704.18     0  03:31      0.78    0.83    1.00
  YS02006558YS02006561 CONDUIT    982.45     0  03:00      3.47    2.17    1.00
  YS02001633YS02163601 CONDUIT    397.06     0  02:35      0.51    0.42    1.00
  YS02001644YS02001647 CONDUIT    610.00     0  03:01      0.78    0.36    1.00
  YS02001745YS02001748 CONDUIT    543.84     0  02:26      1.47    0.21    0.96
  YS02001748YS02001751 CONDUIT    359.08     0  02:17      1.06    0.18    1.00
  YS02001751YS02001754 CONDUIT    342.59     0  03:01      0.92    0.17    1.00
  YS02001754YS02001757 CONDUIT    342.78     0  03:01      0.44    0.14    1.00
  YS02001882YS02001884 CONDUIT     32.71     0  02:35      0.13    0.04    1.00
  YS02001884YS02001887 CONDUIT     65.68     0  02:35      0.09    0.09    1.00
  YS02001890YS02001895 CONDUIT    496.10     0  03:01      0.63    0.23    1.00
  YS02001895YS02001898 CONDUIT    495.27     0  03:01      0.63    0.86    1.00
  YS02001898YS02001901 CONDUIT    495.93     0  03:01      0.63    0.32    1.00
  YS02001901YS02001904 CONDUIT    495.68     0  03:01      0.63    0.77    1.00
  YS02001904YS02001907 CONDUIT    495.84     0  03:01      0.63    0.17    1.00
  YS02001887YS02001890 CONDUIT    495.54     0  03:01      0.63    0.85    1.00
  YS02001652YS02001649 CONDUIT    381.88     0  03:01      0.63    0.19    1.00
  YS02001655YS02001652 CONDUIT    379.70     0  03:01      0.98    0.18    1.00
  YS02001658YS02001655 CONDUIT    395.76     0  02:18      1.22    0.17    1.00
  YS02001661YS02001658 CONDUIT    601.90     0  02:23      1.55    0.24    1.00
  YS02001664YS02001661 CONDUIT    636.54     0  02:39      1.43    0.20    0.76
  YSB1154YSB6556       CONDUIT     25.82     0  03:01      0.17    0.05    0.59
  YSB1174YSB1171       CONDUIT     20.15     0  03:01      0.07    0.03    0.70
  YSB1171HS02004479    CONDUIT     44.91     0  03:02      0.54    0.03    0.55
  HS02004881HS02006253 CONDUIT    101.13     0  02:56      2.14    0.02    0.53
  YS02001793JiankangQianchi CONDUIT    984.59     0  03:00     16.75    0.08    1.00
  YS02001757CaochengTiaoxuchi CONDUIT   1577.15     0  02:35      2.02    0.69    1.00
  WSF200WS02003060     CONDUIT    830.14     0  03:05      1.85    0.18    0.42
  1                    CONDUIT   1226.40     0  03:08      3.51    0.43    0.46
  CC-Pump-1            PUMP       200.00     0  03:00              1.00
  CC-Pump-2            PUMP       200.00     0  03:00              1.00
  JK-Pump-1            PUMP       300.00     0  00:00              1.00
  JK-Pump-2            PUMP       683.00     0  00:00              1.00
  XR-Pump-1            PUMP        95.00     0  00:00              1.00
  XR-Pump-2            PUMP        95.00     0  00:00              1.00
  XR-Pump-3            PUMP        95.00     0  00:00              1.00
  XR-Pump-4            PUMP        95.00     0  00:00              1.00
  
  
  ***************************
  Flow Classification Summary
  ***************************
  
  -------------------------------------------------------------------------------------
                      Adjusted    ---------- Fraction of Time in Flow Class ---------- 
                       /Actual         Up    Down  Sub   Sup   Up    Down  Norm  Inlet 
  Conduit               Length    Dry  Dry   Dry   Crit  Crit  Crit  Crit  Ltd   Ctrl  
  -------------------------------------------------------------------------------------
  WS02003066WSF200        1.00   0.03  0.03  0.00  0.00  0.94  0.00  0.00  0.41  0.00
  WS02006287WS02006284    1.00   0.02  0.01  0.00  0.69  0.27  0.00  0.00  0.62  0.00
  WS02006284WS02006280    1.00   0.03  0.00  0.00  0.00  0.00  0.00  0.97  0.00  0.00
  WS02006280WS02006229    1.00   0.03  0.00  0.00  0.00  0.01  0.00  0.95  0.02  0.00
  WS02006229WS02006228    1.00   0.00  0.00  0.00  1.00  0.00  0.00  0.00  0.00  0.00
  WS02006256WS02006235    1.00   0.00  0.00  0.00  1.00  0.00  0.00  0.00  0.00  0.00
  WS02006253WS02006251    1.00   0.01  0.01  0.00  0.97  0.00  0.00  0.00  0.00  0.00
  WS02006252WS02006251    1.00   0.16  0.00  0.00  0.17  0.00  0.67  0.00  0.00  0.00
  WS02006251WS02006249    1.00   0.00  0.00  0.00  1.00  0.00  0.00  0.00  0.20  0.00
  WS02006249WS02006248    1.00   0.00  0.01  0.00  0.92  0.00  0.07  0.00  0.00  0.00
  WS02006248WS02006247    1.00   0.01  0.00  0.00  0.98  0.00  0.00  0.01  0.11  0.00
  WS02006247WS02006245    1.00   0.01  0.00  0.00  0.97  0.00  0.00  0.02  0.00  0.00
  WS02006245WS02006243    1.00   0.00  0.00  0.00  0.96  0.00  0.00  0.04  0.01  0.00
  WS02006243WS02006242    1.00   0.00  0.00  0.00  1.00  0.00  0.00  0.00  0.23  0.00
  WS02006242WS02006240    1.00   0.00  0.00  0.00  1.00  0.00  0.00  0.00  0.00  0.00
  WS02006240WS02006239    1.00   0.00  0.00  0.00  0.96  0.00  0.00  0.04  0.01  0.00
  WS02006239WS02006238    1.00   0.00  0.00  0.00  1.00  0.00  0.00  0.00  0.14  0.00
  WS02006238WS02006235    1.00   0.00  0.00  0.00  1.00  0.00  0.00  0.00  0.00  0.00
  WS02006235WS02006234    1.00   0.00  0.00  0.00  0.96  0.00  0.04  0.00  0.00  0.00
  WS02006234WS02006232    1.00   0.00  0.00  0.00  1.00  0.00  0.00  0.00  0.10  0.00
  WS02006232WS02006231    1.00   0.00  0.00  0.00  1.00  0.00  0.00  0.00  0.00  0.00
  WS02006231WS02006230    1.00   0.00  0.00  0.00  0.84  0.00  0.16  0.00  0.00  0.00
  WS02006230WS02006229    1.00   0.00  0.00  0.00  1.00  0.00  0.00  0.00  0.01  0.00
  WS02006228WS02006109    1.00   0.00  0.00  0.00  1.00  0.00  0.00  0.00  0.00  0.00
  WS02006116WS02004401    1.00   0.01  0.00  0.00  0.99  0.00  0.00  0.00  0.01  0.00
  WS02006115WS02006116    1.00   0.01  0.00  0.00  0.98  0.00  0.00  0.02  0.01  0.00
  WS02006113WS02006111    1.00   0.01  0.00  0.00  0.02  0.98  0.00  0.00  0.14  0.00
  WS02006112WS02006115    1.00   0.01  0.00  0.00  0.99  0.00  0.00  0.00  0.00  0.00
  WS02006111WS02006112    1.00   0.01  0.00  0.00  0.99  0.00  0.00  0.00  0.90  0.00
  WS02006110WS02006113    1.00   0.00  0.00  0.00  0.99  0.00  0.00  0.00  0.00  0.00
  WS02006109WS02006110    1.00   0.00  0.00  0.00  1.00  0.00  0.00  0.00  0.00  0.00
  WS02004411WS02004412    1.00   0.05  0.00  0.00  0.95  0.00  0.00  0.00  0.00  0.00
  WS02004401WS02004402    1.00   0.01  0.00  0.00  0.99  0.00  0.00  0.00  0.01  0.00
  WS02004413WS02003067    1.00   0.05  0.01  0.00  0.00  0.00  0.94  0.00  0.00  0.00
  WS02004412WS02004413    1.00   0.05  0.00  0.00  0.95  0.00  0.00  0.00  0.00  0.00
  WS02004410WS02004411    1.00   0.05  0.00  0.00  0.95  0.00  0.00  0.00  0.00  0.00
  WS02004409WS02004410    1.00   0.05  0.00  0.00  0.95  0.00  0.00  0.00  0.00  0.00
  WS02004407WS02004409    1.00   0.05  0.00  0.00  0.95  0.01  0.00  0.00  0.81  0.00
  WS02004406WS02004407    1.00   0.00  0.04  0.00  0.95  0.00  0.00  0.00  0.00  0.00
  WS02004405WS02004406    1.00   0.00  0.00  0.00  1.00  0.00  0.00  0.00  0.02  0.00
  WS02004404WS02004405    1.00   0.00  0.00  0.00  1.00  0.00  0.00  0.00  0.00  0.00
  WS02004403WS02004404    1.00   0.00  0.01  0.00  0.99  0.00  0.00  0.00  0.02  0.00
  WS02004402WS02004403    1.00   0.01  0.00  0.00  0.99  0.00  0.00  0.00  0.00  0.00
  WS02004139WS02001211    1.00   0.00  0.00  0.00  1.00  0.00  0.00  0.00  0.00  0.00
  WS02004138WS02004139    1.00   0.00  0.00  0.00  1.00  0.00  0.00  0.00  1.00  0.00
  WS02003067WS02003066    1.00   0.06  0.00  0.00  0.94  0.00  0.00  0.00  0.00  0.00
  WS02001213WS02003059    1.00   0.00  0.00  0.00  1.00  0.00  0.00  0.00  0.00  0.00
  WS02001212WS02001213    1.00   0.00  0.00  0.00  0.93  0.00  0.07  0.00  0.00  0.00
  WS02001211WS02001212    1.00   0.00  0.00  0.00  1.00  0.00  0.00  0.00  0.00  0.00
  WS02003072WS02003073    1.00   0.00  0.00  0.00  0.00  0.00  0.00  1.00  0.00  0.00
  WS02003069WS02003072    1.00   0.00  0.00  0.00  1.00  0.00  0.00  0.00  0.12  0.00
  WS02003060WS02003069    1.00   0.00  0.00  0.00  1.00  0.00  0.00  0.00  0.11  0.00
  WS02003059WS02003060    1.00   0.00  0.00  0.00  1.00  0.00  0.00  0.00  0.00  0.00
  HS02004901HS02004770    1.00   0.03  0.00  0.00  0.97  0.00  0.00  0.00  0.00  0.00
  HS02004876HS02004881    1.00   0.01  0.00  0.00  0.94  0.06  0.00  0.00  0.00  0.00
  HS02004870HS02004876    1.00   0.00  0.00  0.00  1.00  0.00  0.00  0.00  0.95  0.00
  HS02004842HS02004848    1.00   0.00  0.03  0.00  0.97  0.00  0.00  0.00  0.55  0.00
  HS02004837HS02004842    1.00   0.00  0.00  0.00  1.00  0.00  0.00  0.00  0.11  0.00
  HS02004830HS02004837    1.00   0.00  0.00  0.00  1.00  0.00  0.00  0.00  0.99  0.00
  HS02004824HS02004830    1.00   0.00  0.00  0.00  1.00  0.00  0.00  0.00  0.00  0.00
  HS02004817HS02004824    1.00   0.00  0.00  0.00  1.00  0.00  0.00  0.00  1.00  0.00
  HS02004770HS02004777    1.00   0.00  0.03  0.00  0.97  0.00  0.00  0.00  0.02  0.00
  HS02004799HS02004480    1.00   0.00  0.01  0.00  0.96  0.00  0.03  0.00  0.00  0.00
  HS02004792HS02004799    1.00   0.00  0.00  0.00  1.00  0.00  0.00  0.00  0.98  0.00
  HS02004788HS02004792    1.00   0.00  0.00  0.00  1.00  0.00  0.00  0.00  0.98  0.00
  HS02004785HS02004788    1.00   0.00  0.00  0.00  1.00  0.00  0.00  0.00  0.00  0.00
  HS02004777HS02004785    1.00   0.00  0.00  0.00  1.00  0.00  0.00  0.00  0.12  0.00
  HS02004480HS02004478    1.00   0.03  0.00  0.00  0.73  0.00  0.00  0.24  0.00  0.00
  HS02004479HS02004480    1.00   0.01  0.00  0.00  0.99  0.00  0.00  0.00  0.11  0.00
  HS02004862HS02004870    1.00   0.00  0.00  0.00  1.00  0.00  0.00  0.00  0.03  0.00
  HS02004848HS02004852    1.00   0.03  0.00  0.00  0.97  0.00  0.00  0.00  0.62  0.00
  HS02004856HS02004862    1.00   0.00  0.04  0.00  0.96  0.00  0.00  0.00  0.83  0.00
  HS02004852HS02004856    1.00   0.03  0.00  0.00  0.97  0.00  0.00  0.00  0.85  0.00
  HS02004802HS02004478    1.00   0.03  0.00  0.00  0.97  0.00  0.00  0.00  0.02  0.00
  HS02004478WS02006287    1.00   0.04  0.00  0.00  0.80  0.17  0.00  0.00  0.64  0.00
  HS02004817HS02004807    1.00   0.00  0.03  0.00  0.97  0.00  0.00  0.00  0.01  0.00
  HS02004807HS02004802    1.00   0.03  0.00  0.00  0.97  0.00  0.00  0.00  0.00  0.00
  YS02001759YS02001757    1.00   0.00  0.00  0.00  1.00  0.00  0.00  0.00  0.16  0.00
  YS02001762YS02001759    1.00   0.00  0.00  0.00  1.00  0.00  0.00  0.00  0.03  0.00
  YS02001765YS02001762    1.00   0.00  0.00  0.00  1.00  0.00  0.00  0.00  0.13  0.00
  YS02001770YS02001767    1.00   0.00  0.00  0.00  1.00  0.00  0.00  0.00  0.00  0.00
  YS02001774YS02001770    1.00   0.00  0.03  0.00  0.97  0.00  0.00  0.00  0.02  0.00
  YS02001779YS02001774    1.00   0.00  0.00  0.00  1.00  0.00  0.00  0.00  0.18  0.00
  YS02001649YS02001757    1.00   0.00  0.00  0.00  1.00  0.00  0.00  0.00  0.16  0.00
  YS02001767YS02001765    1.00   0.00  0.00  0.00  1.00  0.00  0.00  0.00  0.00  0.00
  YS02006561YS02001783    1.00   0.04  0.00  0.00  0.32  0.64  0.00  0.00  0.48  0.00
  YS02001783YS02001784    1.00   0.00  0.04  0.00  0.96  0.00  0.00  0.00  0.01  0.00
  YS02001784YS02001785    1.00   0.00  0.00  0.00  1.00  0.00  0.00  0.00  0.17  0.00
  YS02001788YS02001790    1.00   0.00  0.00  0.00  0.39  0.61  0.00  0.00  0.37  0.00
  YS02001790YS02001791    1.00   0.00  0.00  0.00  0.36  0.64  0.00  0.00  0.44  0.00
  YS02001791YS02001793    1.00   0.00  0.00  0.00  0.41  0.59  0.00  0.00  0.03  0.00
  YS02001910YS02001907    1.00   0.00  0.00  0.00  0.99  0.00  0.00  0.01  0.12  0.00
  YS02001786YS02001788    1.00   0.00  0.00  0.00  0.37  0.63  0.00  0.00  0.00  0.00
  YS02001915YS02001910    1.00   0.00  0.00  0.00  0.99  0.01  0.00  0.00  0.15  0.00
  YS02001918YS02001915    1.00   0.00  0.00  0.00  0.99  0.00  0.00  0.00  0.55  0.00
  YS02001923YS02001920    1.00   0.00  0.00  0.00  1.00  0.00  0.00  0.00  0.84  0.00
  YS02001926YS02001923    1.00   0.00  0.02  0.00  0.12  0.00  0.87  0.00  0.00  0.00
  YS02001929YS02001926    1.00   0.00  0.03  0.00  0.97  0.00  0.00  0.00  0.76  0.00
  YS02001920YS02001918    1.00   0.00  0.00  0.00  1.00  0.00  0.00  0.00  0.00  0.00
  YS02001629YS02163301    1.00   0.04  0.00  0.00  0.96  0.00  0.00  0.00  0.00  0.00
  YS02001619YS02001622    1.00   0.03  0.00  0.00  0.97  0.00  0.00  0.00  0.00  0.00
  YS02001622YS02001625    1.00   0.03  0.00  0.00  0.97  0.00  0.00  0.00  0.04  0.00
  YS02001625YS02001629    1.00   0.03  0.01  0.00  0.94  0.00  0.02  0.00  0.00  0.00
  YS02163301YS02001633    1.00   0.00  0.03  0.00  0.97  0.00  0.00  0.00  0.00  0.00
  YS02163601YS02164001    1.00   0.00  0.02  0.00  0.98  0.00  0.00  0.00  0.00  0.00
  YS02164001YS02001641    1.00   0.00  0.02  0.00  0.98  0.00  0.00  0.00  0.06  0.00
  YS02001641YS02001644    1.00   0.00  0.00  0.00  1.00  0.00  0.00  0.00  0.00  0.00
  YS02001647YS02001649    1.00   0.00  0.04  0.00  0.96  0.00  0.00  0.00  0.01  0.00
  YS02006553YS02006556    1.00   0.00  0.00  0.00  1.00  0.00  0.00  0.00  0.03  0.00
  YS02006556YS02006558    1.00   0.00  0.00  0.00  1.00  0.00  0.00  0.00  0.00  0.00
  YSB6556YSB1171          1.00   0.01  0.02  0.00  0.97  0.00  0.00  0.00  0.00  0.00
  YS02001907YS02006553    1.00   0.00  0.01  0.00  0.99  0.00  0.00  0.00  0.00  0.00
  YS02006558YS02006561    1.00   0.04  0.00  0.00  0.11  0.84  0.00  0.00  0.48  0.00
  YS02001633YS02163601    1.00   0.00  0.00  0.00  1.00  0.00  0.00  0.00  0.15  0.00
  YS02001644YS02001647    1.00   0.00  0.04  0.00  0.96  0.00  0.00  0.00  0.00  0.00
  YS02001745YS02001748    1.00   0.00  0.00  0.00  0.92  0.00  0.00  0.07  0.04  0.00
  YS02001748YS02001751    1.00   0.00  0.00  0.00  0.97  0.03  0.00  0.00  0.15  0.00
  YS02001751YS02001754    1.00   0.00  0.00  0.00  0.95  0.00  0.00  0.05  0.02  0.00
  YS02001754YS02001757    1.00   0.00  0.00  0.00  1.00  0.00  0.00  0.00  0.18  0.00
  YS02001882YS02001884    1.00   0.03  0.00  0.00  0.96  0.00  0.00  0.00  0.00  0.00
  YS02001884YS02001887    1.00   0.02  0.01  0.00  0.97  0.00  0.00  0.00  0.00  0.00
  YS02001890YS02001895    1.00   0.00  0.04  0.00  0.96  0.00  0.00  0.00  0.00  0.00
  YS02001895YS02001898    1.00   0.04  0.00  0.00  0.95  0.00  0.01  0.00  0.00  0.00
  YS02001898YS02001901    1.00   0.04  0.00  0.00  0.96  0.00  0.00  0.00  0.01  0.00
  YS02001901YS02001904    1.00   0.04  0.00  0.00  0.96  0.00  0.00  0.00  0.00  0.00
  YS02001904YS02001907    1.00   0.00  0.04  0.00  0.96  0.00  0.00  0.00  0.00  0.00
  YS02001887YS02001890    1.00   0.00  0.00  0.00  0.99  0.00  0.01  0.00  0.00  0.00
  YS02001652YS02001649    1.00   0.00  0.00  0.00  1.00  0.00  0.00  0.00  0.16  0.00
  YS02001655YS02001652    1.00   0.00  0.00  0.00  0.95  0.00  0.00  0.05  0.02  0.00
  YS02001658YS02001655    1.00   0.00  0.03  0.00  0.94  0.03  0.00  0.00  0.08  0.00
  YS02001661YS02001658    1.00   0.03  0.00  0.00  0.92  0.05  0.00  0.00  0.08  0.00
  YS02001664YS02001661    1.00   0.03  0.00  0.00  0.93  0.04  0.00  0.00  0.19  0.00
  YSB1154YSB6556          1.00   0.03  0.00  0.00  0.97  0.00  0.00  0.00  0.01  0.00
  YSB1174YSB1171          1.00   0.01  0.01  0.00  0.98  0.00  0.00  0.00  0.00  0.00
  YSB1171HS02004479       1.00   0.01  0.00  0.00  0.99  0.00  0.00  0.00  0.10  0.00
  HS02004881HS02006253    1.00   0.01  0.00  0.00  0.81  0.01  0.00  0.17  0.62  0.00
  YS02001793JiankangQianchi    1.00   0.00  0.00  0.00  0.65  0.35  0.00  0.00  0.36  0.00
  YS02001757CaochengTiaoxuchi    1.00   0.00  0.06  0.00  0.94  0.00  0.00  0.00  0.00  0.00
  WSF200WS02003060        1.00   0.00  0.03  0.00  0.97  0.00  0.00  0.00  0.32  0.00
  1                       1.00   0.00  0.00  0.00  0.00  1.00  0.00  0.00  0.49  0.00
  
  
  *************************
  Conduit Surcharge Summary
  *************************
  
  ----------------------------------------------------------------------------
                                                           Hours        Hours 
                         --------- Hours Full --------   Above Full   Capacity
  Conduit                Both Ends  Upstream  Dnstream   Normal Flow   Limited
  ----------------------------------------------------------------------------
  WS02006229WS02006228        4.35      4.43      4.35      5.48         4.35
  WS02006256WS02006235        5.85      5.86      6.71      4.43         0.01
  WS02006253WS02006251        2.39      2.39      2.47      0.01         0.01
  WS02006252WS02006251        2.09      2.09      3.11      2.76         0.01
  WS02006251WS02006249        2.41      2.42      2.49      1.85         1.49
  WS02006249WS02006248        2.40      2.41      2.49      4.65         0.01
  WS02006248WS02006247        2.47      2.47      2.71      0.01         0.01
  WS02006247WS02006245        2.69      2.74      2.69      4.76         2.64
  WS02006245WS02006243        2.71      2.72      2.78      0.43         0.35
  WS02006243WS02006242        2.82      2.82      3.51      0.01         0.01
  WS02006242WS02006240        3.26      3.26      3.73      3.16         0.01
  WS02006240WS02006239        3.34      3.36      3.44      1.49         0.83
  WS02006239WS02006238        3.58      3.61      3.78      1.76         1.02
  WS02006238WS02006235        3.74      3.74      3.94      0.01         0.01
  WS02006235WS02006234        3.41      3.41      3.67      5.84         0.01
  WS02006234WS02006232        3.54      3.54      4.11      1.46         1.34
  WS02006232WS02006231        2.38      2.38      4.11      1.63         0.01
  WS02006231WS02006230        1.92      1.92      2.48      5.83         0.01
  WS02006230WS02006229        4.90      5.37      4.90      5.99         4.90
[...]
  YS02001765YS02001762        5.84      5.84      5.87      0.01         0.01
  YS02001770YS02001767        5.81      5.81      5.81      0.19         0.88
  YS02001774YS02001770        5.80      5.80      5.86      0.01         0.01
  YS02001779YS02001774        5.67      5.67      5.86      0.01         0.01
  YS02001649YS02001757        5.87      5.87      5.98      0.01         0.01
  YS02001767YS02001765        5.81      5.81      5.84      0.01         0.01
  YS02006561YS02001783        0.77      0.77      1.06      0.01         0.01
  YS02001783YS02001784        1.03      1.06      1.03      1.40         1.02
  YS02001784YS02001785        0.98      1.03      0.98      2.40         0.98
  YS02001788YS02001790        0.93      0.93      1.87      0.01         0.01
  YS02001790YS02001791        1.87      1.87      2.19      0.87         0.85
  YS02001791YS02001793        2.19      2.19      2.63      0.01         0.01
  YS02001910YS02001907        1.07      1.07      1.78      0.01         0.01
  YS02001786YS02001788        0.93      0.98      0.93      2.00         0.93
  YS02001915YS02001910        0.89      0.89      1.07      0.01         0.01
  YS02001918YS02001915        0.71      0.71      0.89      0.01         0.01
  YS02001923YS02001920        0.54      0.54      0.74      0.01         0.01
  YS02001920YS02001918        0.71      0.71      0.74      0.01         0.01
  YS02001629YS02163301        5.80      5.80      5.81      0.01         0.01
  YS02001619YS02001622        5.48      5.48      5.51      0.01         0.01
  YS02001622YS02001625        5.51      5.51      5.76      0.01         0.01
  YS02001625YS02001629        5.48      5.48      5.76      0.01         0.01
  YS02163301YS02001633        5.81      5.81      5.84      0.01         0.01
  YS02163601YS02164001        5.84      5.84      5.87      0.01         0.01
  YS02164001YS02001641        5.84      5.84      5.85      0.01         0.03
  YS02001641YS02001644        5.85      5.85      5.85      1.53         1.54
  YS02001647YS02001649        5.75      5.75      5.87      0.01         0.01
  YS02006553YS02006556        1.31      1.31      1.89      0.01         0.01
  YS02006556YS02006558        1.54      1.54      1.97      0.01         0.01
  YS02001907YS02006553        2.41      2.41      2.62      0.01         0.01
  YS02006558YS02006561        0.91      1.26      0.91      2.24         0.91
  YS02001633YS02163601        5.83      5.83      5.87      0.01         0.01
  YS02001644YS02001647        5.75      5.75      5.85      0.01         0.01
  YS02001745YS02001748        0.01      0.01      5.30      0.01         0.01
  YS02001748YS02001751        5.36      5.36      5.49      0.01         0.01
  YS02001751YS02001754        5.49      5.49      5.70      0.01         0.01
  YS02001754YS02001757        5.74      5.74      5.98      0.01         0.01
  YS02001882YS02001884        0.90      0.90      0.93      0.01         0.01
  YS02001884YS02001887        0.97      0.97      1.00      0.01         0.01
  YS02001890YS02001895        0.88      0.88      1.07      0.01         0.01
  YS02001895YS02001898        0.87      0.87      0.88      0.01         0.01
  YS02001898YS02001901        0.89      0.89      0.96      0.01         0.01
  YS02001901YS02001904        0.94      0.94      0.96      0.01         0.01
  YS02001904YS02001907        0.94      0.94      1.91      0.01         0.01
  YS02001887YS02001890        1.02      1.02      1.04      0.01         0.01
  YS02001652YS02001649        5.76      5.76      5.87      0.01         0.01
  YS02001655YS02001652        5.50      5.50      5.73      0.01         0.01
  YS02001658YS02001655        5.33      5.33      5.50      0.01         0.01
  YS02001661YS02001658        0.21      0.21      5.33      0.01         0.01
  YS02001664YS02001661        0.01      0.01      1.00      0.01         0.01
  HS02004881HS02006253        0.01      0.01      1.60      0.01         0.01
  YS02001793JiankangQianchi        2.51      2.51      4.15      0.01         0.01
  YS02001757CaochengTiaoxuchi        5.21      5.21      5.98      0.01         0.01
  
  
  ***************
  Pumping Summary
  ***************
  
  ---------------------------------------------------------------------------------------------------------
                                                  Min       Avg       Max     Total     Power    % Time Off
                        Percent   Number of      Flow      Flow      Flow    Volume     Usage    Pump Curve
  Pump                 Utilized   Start-Ups       LPS       LPS       LPS  10^6 ltr     Kw-hr    Low   High
  ---------------------------------------------------------------------------------------------------------
  CC-Pump-1               63.82           1      0.00    191.20    200.00     3.420      3.79    0.0    0.0
  CC-Pump-2               48.92           5      0.00    107.52    200.00     1.800      2.44    0.0    0.0
  JK-Pump-1               63.83           5      0.00    203.23    300.00     3.679     54.58    0.0    0.0
  JK-Pump-2               55.31           5      0.00    357.46    683.00     6.070     85.16    0.0   95.5
  XR-Pump-1              100.00           1      0.00     95.00     95.00     2.679     28.27    0.0    0.0
  XR-Pump-2               99.99           2      0.00     93.81     95.00     2.622     27.07    0.0    0.0
  XR-Pump-3               91.48           3      0.00     93.04     95.00     2.337     20.68    0.0    0.0
  XR-Pump-4               91.48           3      0.00     93.04     95.00     2.337     20.68    0.0    0.0
  
  
  ***************************
  Link Pollutant Load Summary
  ***************************
  
  ------------------------------------------------------------------------------------------
                                 COD            SS            TN            TP         NH4-N
  Link                            kg            kg            kg            kg            kg
  ------------------------------------------------------------------------------------------
  WS02003066WSF200           884.647      1622.223        23.178         2.007        12.186
  WS02006287WS02006284       268.069       498.236         9.346         0.943         5.214
  WS02006284WS02006280       268.555       499.020         9.393         0.949         5.243
  WS02006280WS02006229       268.520       498.954         9.391         0.948         5.242
  WS02006229WS02006228       882.330      1618.278        22.622         1.929        11.825
  WS02006256WS02006235       198.403       361.063         4.452         0.348         2.259
  WS02006253WS02006251        50.014        96.462         1.133         0.086         0.565
  WS02006252WS02006251       430.845       781.220         9.020         0.646         4.433
  WS02006251WS02006249       474.858       866.938        10.050         0.726         4.952
  WS02006249WS02006248       425.217       775.655         9.003         0.649         4.435
  WS02006248WS02006247       424.878       775.089         8.998         0.649         4.433
  WS02006247WS02006245       424.215       773.913         8.983         0.648         4.426
  WS02006245WS02006243       423.476       772.690         8.963         0.646         4.415
  WS02006243WS02006242       422.852       771.605         8.952         0.645         4.410
  WS02006242WS02006240       422.000       770.150         8.932         0.644         4.400
  WS02006240WS02006239       422.139       770.515         8.935         0.644         4.402
  WS02006239WS02006238       423.064       772.123         8.969         0.648         4.421
  WS02006238WS02006235       423.401       772.567         8.984         0.650         4.430
  WS02006235WS02006234       616.893      1124.775        13.309         0.987         6.623
  WS02006234WS02006232       616.540      1124.149        13.305         0.987         6.621
  WS02006232WS02006231       616.061      1123.300        13.293         0.986         6.616
  WS02006231WS02006230       615.559      1122.405        13.283         0.986         6.611
  WS02006230WS02006229       614.605      1120.738        13.257         0.983         6.597
  WS02006228WS02006109       881.799      1617.355        22.608         1.928        11.817
  WS02006116WS02004401       894.841      1640.200        23.444         2.030        12.325
  WS02006115WS02006116       895.756      1641.803        23.471         2.032        12.339
  WS02006113WS02006111       888.321      1627.542        23.359         2.024        12.291
  WS02006112WS02006115       896.914      1643.837        23.511         2.036        12.362
  WS02006111WS02006112       887.991      1626.930        23.353         2.024        12.289
  WS02006110WS02006113       888.836      1628.428        23.378         2.026        12.302
  WS02006109WS02006110       889.757      1630.017        23.414         2.029        12.322
  WS02004411WS02004412       887.933      1627.963        23.299         2.019        12.254
  WS02004401WS02004402       893.755      1638.295        23.407         2.026        12.304
  WS02004413WS02003067       885.202      1623.184        23.194         2.009        12.195
  WS02004412WS02004413       886.857      1626.074        23.265         2.016        12.236
  WS02004410WS02004411       888.797      1629.473        23.325         2.022        12.268
  WS02004409WS02004410       889.723      1631.094        23.356         2.025        12.285
  WS02004407WS02004409       890.412      1632.293        23.375         2.027        12.296
  WS02004406WS02004407       890.517      1632.459        23.376         2.026        12.295
  WS02004405WS02004406       892.011      1635.028        23.447         2.034        12.337
  WS02004404WS02004405       892.541      1635.999        23.436         2.032        12.328
  WS02004403WS02004404       891.975      1635.176        23.347         2.020        12.271
  WS02004402WS02004403       892.882      1636.772        23.379         2.023        12.289
  WS02004139WS02001211      1404.999      2314.661       116.853        14.310        72.163
  WS02004138WS02004139      1411.541      2325.469       117.380        14.374        72.487
  WS02003067WS02003066       884.860      1622.597        23.186         2.008        12.190
  WS02001213WS02003059      1437.275      2365.555       120.173        14.729        74.248
  WS02001212WS02001213      1446.705      2381.043       120.961        14.825        74.735
  WS02001211WS02001212      1449.052      2384.860       121.167        14.851        74.863
  WS02003072WS02003073      2421.394      4145.960       153.242        17.978        92.631
  WS02003069WS02003072      2426.816      4154.870       153.683        18.032        92.903
  WS02003060WS02003069      2429.482      4159.405       153.842        18.050        92.998
  WS02003059WS02003060      1433.922      2359.961       119.919        14.698        74.092
  HS02004901HS02004770        10.271        19.478         0.196         0.015         0.091
  HS02004876HS02004881        37.320        72.584         0.843         0.062         0.416
  HS02004870HS02004876        28.161        54.631         0.678         0.051         0.338
  HS02004842HS02004848         5.467        10.277         0.115         0.008         0.053
  HS02004837HS02004842        10.072        17.581         0.584         0.067         0.347
  HS02004830HS02004837        65.639       112.705         4.556         0.546         2.785
  HS02004824HS02004830        66.390       113.908         4.628         0.555         2.829
  HS02004817HS02004824        88.208       156.980         5.083         0.584         3.051
  HS02004770HS02004777        39.297        75.469         0.819         0.055         0.377
  HS02004799HS02004480       131.417       245.386         3.680         0.335         1.933
  HS02004792HS02004799       119.091       220.674         3.497         0.327         1.853
  HS02004788HS02004792        68.399       126.864         2.388         0.235         1.309
  HS02004785HS02004788        40.736        77.766         0.969         0.074         0.471
  HS02004777HS02004785        40.062        76.672         0.909         0.067         0.434
  HS02004480HS02004478       165.958       312.611         4.243         0.374         2.195
  HS02004479HS02004480        38.144        72.974         0.884         0.079         0.462
  HS02004862HS02004870        21.017        40.119         0.536         0.043         0.270
  HS02004848HS02004852         8.058        15.280         0.167         0.011         0.077
  HS02004856HS02004862        14.072        27.342         0.284         0.019         0.133
  HS02004852HS02004856         8.065        15.291         0.167         0.011         0.077
  HS02004802HS02004478       102.888       186.893         5.162         0.575         3.055
  HS02004478WS02006287       268.265       498.565         9.363         0.945         5.224
  HS02004817HS02004807        86.889       154.864         4.956         0.568         2.972
  HS02004807HS02004802       103.115       187.248         5.194         0.580         3.075
  YS02001759YS02001757       365.147       665.105         7.322         0.505         3.576
  YS02001762YS02001759       157.927       287.139         3.418         0.239         1.694
  YS02001765YS02001762       157.728       287.068         3.436         0.241         1.706
  YS02001770YS02001767       155.825       284.421         3.195         0.207         1.551
  YS02001774YS02001770       149.049       288.151         2.884         0.189         1.393
  YS02001779YS02001774       147.866       285.659         2.972         0.204         1.456
  YS02001649YS02001757       279.701       494.709         5.633         0.395         2.697
  YS02001767YS02001765       157.892       287.539         3.456         0.242         1.718
  YS02006561YS02001783       935.920      1716.409        19.827         1.488         9.895
  YS02001783YS02001784       935.817      1716.252        19.823         1.487         9.892
  YS02001784YS02001785       943.133      1727.968        20.536         1.577        10.338
  YS02001788YS02001790       943.732      1728.932        20.611         1.586        10.386
  YS02001790YS02001791       944.920      1730.855        20.725         1.601        10.458
  YS02001791YS02001793       944.827      1730.691        20.721         1.600        10.455
  YS02001910YS02001907       330.065       599.162         8.228         0.642         4.251
  YS02001786YS02001788       943.318      1728.270        20.563         1.580        10.356
  YS02001915YS02001910       330.164       599.321         8.185         0.635         4.221
  YS02001918YS02001915       159.752       277.671         4.654         0.433         2.533
  YS02001923YS02001920       137.507       241.235         2.670         0.188         1.300
  YS02001926YS02001923       136.543       239.660         2.591         0.178         1.251
  YS02001929YS02001926       136.170       239.028         2.555         0.174         1.228
  YS02001920YS02001918       157.656       273.570         4.583         0.426         2.494
  YS02001629YS02163301       103.530       183.447         2.171         0.140         1.012
  YS02001619YS02001622       146.394       262.931         3.031         0.197         1.414
  YS02001622YS02001625       145.256       261.137         3.003         0.195         1.401
  YS02001625YS02001629       104.601       185.216         2.195         0.142         1.023
  YS02163301YS02001633       103.264       182.998         2.164         0.140         1.010
  YS02163601YS02164001       362.078       646.273         7.117         0.503         3.404
  YS02164001YS02001641       361.605       645.479         7.097         0.501         3.393
  YS02001641YS02001644       361.862       645.840         7.096         0.500         3.392
  YS02001647YS02001649       326.880       587.340         6.467         0.453         3.081
  YS02006553YS02006556       657.440      1200.063        14.229         1.094         7.176
  YS02006556YS02006558       657.388      1199.957        14.197         1.090         7.155
  YSB6556YSB1171              21.952        42.196         0.451         0.038         0.229
  YS02001907YS02006553       657.546      1200.282        14.243         1.096         7.185
  YS02006558YS02006561       935.920      1716.402        19.826         1.488         9.894
  YS02001633YS02163601       362.763       647.332         7.096         0.498         3.387
  YS02001644YS02001647       333.098       598.369         6.574         0.460         3.131
  YS02001745YS02001748       210.402       386.972         4.767         0.335         2.385
  YS02001748YS02001751       208.773       383.789         4.841         0.348         2.441
  YS02001751YS02001754       207.791       382.178         4.823         0.348         2.432
  YS02001754YS02001757       208.571       383.354         4.987         0.370         2.539
  YS02001882YS02001884         2.891         4.998         0.058         0.005         0.029
  YS02001884YS02001887         7.216        12.787         0.141         0.011         0.070
  YS02001890YS02001895       389.453       720.634         7.189         0.539         3.508
  YS02001895YS02001898       389.265       720.371         7.182         0.539         3.504
  YS02001898YS02001901       389.065       720.032         7.178         0.538         3.502
  YS02001901YS02001904       388.890       719.774         7.184         0.540         3.507
  YS02001904YS02001907       389.094       720.084         7.237         0.547         3.541
  YS02001887YS02001890       390.268       721.858         7.244         0.546         3.541
  YS02001652YS02001649       151.585       277.460         3.091         0.222         1.449
  YS02001655YS02001652       152.016       278.169         3.102         0.223         1.455
  YS02001658YS02001655       151.408       277.224         3.013         0.211         1.397
  YS02001661YS02001658       155.555       284.700         3.096         0.217         1.436
  YS02001664YS02001661       176.984       320.300         3.573         0.250         1.654
  YSB1154YSB6556              21.533        41.529         0.402         0.032         0.198
  YSB1174YSB1171              14.654        28.290         0.298         0.024         0.149
  YSB1171HS02004479           38.103        72.907         0.887         0.079         0.465
  HS02004881HS02006253        42.488        83.045         0.926         0.067         0.454
  YS02001793JiankangQianchi       945.346      1731.487        20.757         1.604        10.477
  YS02001757CaochengTiaoxuchi       681.801      1222.524        14.431         1.026         7.089
  WSF200WS02003060           884.562      1622.077        23.184         2.008        12.190
  1                         2428.337      4156.659       154.073        18.084        93.157
  CC-Pump-1                  278.324       503.763         5.834         0.417         2.867
  CC-Pump-2                  152.556       277.516         3.187         0.229         1.567
  JK-Pump-1                  251.914       462.388         5.476         0.420         2.756
  JK-Pump-2                  490.659       911.285        10.368         0.787         5.187
  XR-Pump-1                  393.368       646.191        33.205         4.075        20.532
  XR-Pump-2                  384.750       632.380        32.396         3.975        20.028
  XR-Pump-3                  318.628       526.589        26.052         3.182        16.064
  XR-Pump-4                  318.628       526.589        26.052         3.182        16.064
  

  Analysis begun on:  Fri Jul 16 10:17:37 2021
  Analysis ended on:  Fri Jul 16 10:17:41 2021
  Total elapsed time: 00:00:04