
  EPA STORM WATER MANAGEMENT MODEL - VERSION 5.1 (Build 5.3.0.dev0)
  --------------------------------------------------------------

  WARNING 04: minimum elevation drop used for Conduit WS02004404WS02004405
  WARNING 03: negative offset ignored for Link YS02001904YS02001907
  
  *********************************************************
  NOTE: The summary statistics displayed in this report are
  based on results found at every computational time step,  
  not just on results from each reporting time step.
  *********************************************************
  
  ****************
  Analysis Options
  ****************
  Flow Units ............... LPS
  Process Models:
    Rainfall/Runoff ........ YES
    RDII ................... NO
    Snowmelt ............... NO
    Groundwater ............ NO
    Flow Routing ........... YES
    Ponding Allowed ........ NO
    Water Quality .......... YES
  Infiltration Method ...... HORTON
  Flow Routing Method ...... DYNWAVE
  Surcharge Method ......... EXTRAN
  Starting Date ............ 08/28/2015 08:00:00
  Ending Date .............. 08/28/2015 15:50:00
  Antecedent Dry Days ...... 8.0
  Report Time Step ......... 00:01:00
  Wet Time Step ............ 00:01:00
  Dry Time Step ............ 00:01:00
  Routing Time Step ........ 5.00 sec
  Variable Time Step ....... YES
  Maximum Trials ........... 8
  Number of Threads ........ 4
  Head Tolerance ........... 0.001500 m
  
  
  **************************        Volume         Depth
  Runoff Quantity Continuity     hectare-m            mm
  **************************     ---------       -------
  Total Precipitation ......         5.556        12.164
  Evaporation Loss .........         0.000         0.000
  Infiltration Loss ........         1.002         2.194
  Surface Runoff ...........         3.688         8.075
  Final Storage ............         0.866         1.897
  Continuity Error (%) .....        -0.019
  
  
  **************************           COD            SS            TN            TP         NH4-N
  Runoff Quality Continuity             kg            kg            kg            kg            kg
  **************************    ----------    ----------    ----------    ----------    ----------
  Initial Buildup ..........     41378.656     70582.865      1804.177       168.684      1032.807
  Surface Buildup ..........        19.275        34.271         2.335         0.213         1.362
  Wet Deposition ...........         0.000         0.000         0.000         0.000         0.000
  Sweeping Removal .........         0.000         0.000         0.000         0.000         0.000
  Infiltration Loss ........        84.023       157.502         1.599         0.111         0.761
  BMP Removal ..............         0.000         0.000         0.000         0.000         0.000
  Surface Runoff ...........      3122.074      5752.154        60.620         4.098        28.771
  Remaining Buildup ........     38190.779     64705.500      1744.271       164.686      1004.628
  Continuity Error (%) .....         0.003         0.003         0.001         0.001         0.001
  
  
  **************************        Volume        Volume
  Flow Routing Continuity        hectare-m      10^6 ltr
  **************************     ---------     ---------
  Dry Weather Inflow .......         0.616         6.165
  Wet Weather Inflow .......         3.687        36.870
  Groundwater Inflow .......         0.000         0.000
  RDII Inflow ..............         0.000         0.000
  External Inflow ..........         0.102         1.024
  External Outflow .........         2.026        20.257
  Flooding Loss ............         1.968        19.682
  Evaporation Loss .........         0.000         0.000
  Exfiltration Loss ........         0.000         0.000
  Initial Stored Volume ....         0.076         0.761
  Final Stored Volume ......         0.630         6.298
  Continuity Error (%) .....        -3.166
  
  
  **************************           COD            SS            TN            TP         NH4-N
  Quality Routing Continuity            kg            kg            kg            kg            kg
  **************************    ----------    ----------    ----------    ----------    ----------
  Dry Weather Inflow .......      1541.201      2465.922       147.955        18.494        92.472
  Wet Weather Inflow .......      3121.278      5750.805        60.603         4.097        28.763
  Groundwater Inflow .......         0.000         0.000         0.000         0.000         0.000
  RDII Inflow ..............         0.000         0.000         0.000         0.000         0.000
  External Inflow ..........       183.418       293.469        17.608         2.201        11.005
  External Outflow .........      2347.645      4015.748       150.990        17.772        91.409
  Flooding Loss ............      1799.815      3300.853        47.890         4.245        25.365
  Exfiltration Loss ........         0.000         0.000         0.000         0.000         0.000
  Mass Reacted .............         0.000         0.000         0.000         0.000         0.000
  Initial Stored Mass ......         0.000         0.000         0.000         0.000         0.000
  Final Stored Mass ........       507.997       863.213        22.883         2.441        13.260
  Continuity Error (%) .....         3.930         3.882         1.947         1.350         1.668
  
  
  *************************
  Highest Continuity Errors
  *************************
  Node HS02004842 (14.53%)
  Node JK-storage (-14.11%)
  Node YS02001884 (10.01%)
  Node YSB1171 (2.74%)
  Node HS02004817 (2.73%)
  
  
  ***************************
  Time-Step Critical Elements
  ***************************
  Link WS02006252WS02006251 (68.56%)
  Link WS02006280WS02006229 (10.47%)
  Link WS02006238WS02006235 (6.49%)
  Link YS02001793JiankangQianchi (3.44%)
  Link WS02004404WS02004405 (1.80%)
  
  
  ********************************
  Highest Flow Instability Indexes
  ********************************
  Link WS02006113WS02006111 (42)
  Link YS02163601YS02164001 (39)
  Link YS02001629YS02163301 (38)
  Link YS02001619YS02001622 (38)
  Link YS02163301YS02001633 (38)
  
  
  *************************
  Routing Time Step Summary
  *************************
  Minimum Time Step           :     0.42 sec
  Average Time Step           :     1.10 sec
  Maximum Time Step           :     5.00 sec
  Percent in Steady State     :    -0.00
  Average Iterations per Step :     4.61
  Percent Not Converging      :    23.90
  
  
  ***************************
  Subcatchment Runoff Summary
  ***************************
  
  ------------------------------------------------------------------------------------------------------------------------------
                            Total      Total      Total      Total     Imperv       Perv      Total       Total     Peak  Runoff
                           Precip      Runon       Evap      Infil     Runoff     Runoff     Runoff      Runoff   Runoff   Coeff
  Subcatchment                 mm         mm         mm         mm         mm         mm         mm    10^6 ltr      LPS
  ------------------------------------------------------------------------------------------------------------------------------
  sub0                      12.16       0.00       0.00       0.65      11.27       0.20      11.47        0.01     1.99   0.943
  sub1                      12.16       0.00       0.00       1.12      10.73       0.22      10.95        0.07    14.96   0.900
  sub2                      12.16       0.00       0.00       4.23       7.58       0.27       7.85        0.07    15.08   0.646
  sub3                      12.16       0.00       0.00       4.29       7.54       0.21       7.75        0.17    34.61   0.637
  sub4                      12.16       0.00       0.00       1.19      10.57       0.14      10.71        0.22    42.34   0.881
  sub5                      12.16       0.00       0.00       0.69      11.21       0.16      11.38        0.13    26.18   0.935
  sub7                      12.16       0.00       0.00       0.88      11.01       0.22      11.22        0.04     7.95   0.923
  sub8                      12.16       0.00       0.00       0.89      11.00       0.21      11.20        0.07    14.89   0.921
  sub9                      12.16       0.00       0.00       0.89      10.99       0.21      11.20        0.05    11.18   0.921
  sub10                     12.16       0.00       0.00       0.79      11.10       0.18      11.28        0.12    25.49   0.928
  sub11                     12.16       0.00       0.00       0.78      11.12       0.19      11.31        0.13    27.35   0.930
  sub12                     12.16       0.00       0.00       1.27      10.53       0.31      10.85        0.09    20.52   0.892
  sub14                     12.16       0.00       0.00       0.89      10.99       0.20      11.20        0.11    22.08   0.920
  sub15                     12.16       0.00       0.00       3.28       8.45       0.37       8.82        0.15    32.49   0.725
  sub16                     12.16       0.00       0.00       3.51       8.11       0.50       8.61        0.09    20.36   0.708
  sub17                     12.16       0.00       0.00       3.41       8.23       0.48       8.71        0.07    16.72   0.716
  sub22                     12.16       0.00       0.00       4.80       6.89       0.43       7.32        0.46   102.62   0.602
  sub23                     12.16       0.00       0.00       4.05       7.62       0.45       8.07        0.38    85.35   0.663
  sub60                     12.16       0.00       0.00       1.42       8.82       0.04       8.86        2.69   336.84   0.729
  sub61                     12.16       0.00       0.00       2.01       8.94       0.06       9.00        2.78   399.45   0.740
  sub62                     12.16       0.00       0.00       0.92       9.73       0.05       9.78        3.01   415.79   0.804
  sub63                     12.16       0.00       0.00       3.46       7.82       0.06       7.88        2.39   361.21   0.648
  sub64                     12.16       0.00       0.00       1.78       8.47       0.04       8.51        2.59   320.97   0.699
  sub65                     12.16       0.00       0.00       1.54       8.61       0.04       8.65        2.66   326.54   0.711
  sub66                     12.16       0.00       0.00       3.49       7.26       0.04       7.30        2.24   290.53   0.600
  sub67                     12.16       0.00       0.00       0.91      10.24       0.07      10.31        3.18   494.23   0.848
  sub68                     12.16       0.00       0.00       1.64       9.40       0.06       9.46        2.91   432.52   0.778
  sub69                     12.16       0.00       0.00       1.73       9.72       0.09       9.82        2.29   383.95   0.807
  sub70                     12.16      10.02       0.00       6.98      13.09       0.56      13.65        3.12   394.93   0.615
  sub71                     12.16       0.00       0.00       0.93       9.48       0.05       9.53        2.25   296.34   0.783
  sub72                     12.16       0.00       0.00       0.83       7.62       0.02       7.64        1.56   151.13   0.628
  1                         12.16      13.29       0.00       1.37      14.64       3.94      18.57        4.36   399.24   0.730
  2                         12.16       0.00       0.00       3.02       2.89       1.65       4.55        1.82   245.52   0.374
  
  
  ****************************
  Subcatchment Washoff Summary
  ****************************
  
  ------------------------------------------------------------------------------------------
                                 COD            SS            TN            TP         NH4-N
  Subcatchment                    kg            kg            kg            kg            kg
  ------------------------------------------------------------------------------------------
  sub0                         2.176         4.147         0.037         0.003         0.018
  sub1                         9.268        18.138         0.173         0.012         0.083
  sub2                         5.563        10.570         0.119         0.008         0.054
  sub3                        13.747        25.918         0.288         0.019         0.132
  sub4                        21.530        42.606         0.429         0.026         0.205
  sub5                        21.300        41.103         0.378         0.029         0.183
  sub7                         4.748         9.424         0.090         0.006         0.043
  sub8                         7.142        14.500         0.143         0.008         0.069
  sub9                         6.100        12.212         0.118         0.007         0.057
  sub10                       17.532        34.266         0.321         0.023         0.155
  sub11                       17.086        33.770         0.320         0.022         0.154
  sub12                       14.392        27.890         0.260         0.019         0.125
  sub14                       13.021        25.823         0.247         0.016         0.119
  sub15                       16.182        30.744         0.313         0.023         0.146
  sub16                       10.318        19.555         0.197         0.015         0.092
  sub17                        9.471        17.789         0.175         0.014         0.082
  sub22                       48.821        90.813         0.932         0.070         0.434
  sub23                       29.138        56.181         0.627         0.041         0.287
  sub60                      203.703       376.194         4.083         0.248         1.956
  sub61                      251.300       461.579         4.699         0.320         2.261
  sub62                      262.762       491.326         5.157         0.324         2.474
  sub63                      185.047       334.594         3.739         0.261         1.731
  sub64                      253.867       452.095         4.687         0.339         2.235
  sub65                      260.106       465.192         4.834         0.344         2.309
  sub66                      146.558       263.078         3.037         0.197         1.417
  sub67                      388.205       718.566         6.963         0.510         3.363
  sub68                      276.714       513.393         5.318         0.356         2.539
  sub69                      247.676       464.012         4.658         0.325         2.225
  sub70                      413.256       778.342         8.287         0.572         3.877
  sub71                      173.740       327.842         3.597         0.206         1.720
  sub72                      136.329       239.316         2.558         0.174         1.230
  1                          280.724       531.718         5.751         0.398         2.660
  2                           35.485        61.812         1.030         0.062         0.437
  ------------------------------------------------------------------------------------------
  System                    3783.006      6994.507        73.566         4.996        34.873
  
  
  ******************
  Node Depth Summary
  ******************
  
  ---------------------------------------------------------------------------------
                                 Average  Maximum  Maximum  Time of Max    Reported
                                   Depth    Depth      HGL   Occurrence   Max Depth
  Node                 Type       Meters   Meters   Meters  days hr:min      Meters
  ---------------------------------------------------------------------------------
  WS02001211           JUNCTION     0.77     0.83     5.67     0  03:08        0.83
  WS02001212           JUNCTION     0.48     0.56     5.62     0  03:08        0.56
  WS02001213           JUNCTION     0.72     0.83     5.59     0  03:07        0.83
  WS02003069           JUNCTION     0.53     0.68     5.27     0  03:07        0.68
  WS02003072           JUNCTION     0.59     0.73     5.10     0  03:07        0.73
  WS02003073           JUNCTION     0.36     0.46     4.52     0  03:08        0.46
  WS02003060           JUNCTION     0.47     0.60     5.53     0  03:06        0.60
  WS02003066           JUNCTION     0.26     0.36     5.92     0  03:05        0.36
  WS02003059           JUNCTION     0.77     0.88     5.57     0  03:07        0.88
  WS02003067           JUNCTION     0.63     0.79     6.11     0  03:04        0.79
  WS02004401           JUNCTION     0.75     1.14     7.14     0  03:03        1.13
  WS02004402           JUNCTION     0.78     1.14     7.10     0  03:02        1.14
  WS02004403           JUNCTION     0.80     1.13     7.06     0  03:00        1.12
  WS02004404           JUNCTION     0.87     1.18     7.03     0  03:03        1.17
  WS02004406           JUNCTION     0.87     1.12     6.95     0  03:03        1.11
  WS02004409           JUNCTION     0.57     0.87     6.64     0  03:04        0.87
  WS02004410           JUNCTION     0.58     0.87     6.59     0  03:04        0.87
  WS02004411           JUNCTION     0.60     0.86     6.54     0  03:04        0.86
  WS02004412           JUNCTION     0.61     0.85     6.49     0  03:04        0.85
  WS02004413           JUNCTION     0.77     0.98     6.45     0  03:04        0.98
  WS02004405           JUNCTION     0.86     1.16     7.01     0  03:03        1.16
  WS02006109           JUNCTION     0.84     1.31     7.93     0  03:02        1.30
  WS02006110           JUNCTION     0.81     1.15     7.74     0  03:02        1.14
  WS02006111           JUNCTION     0.25     0.65     7.36     0  03:03        0.65
  WS02006112           JUNCTION     0.93     1.42     7.30     0  03:02        1.42
  WS02006113           JUNCTION     0.38     0.65     7.54     0  03:02        0.65
  WS02006115           JUNCTION     0.64     1.09     7.23     0  03:02        1.09
  WS02006116           JUNCTION     0.72     1.14     7.18     0  03:03        1.14
  WS02006230           JUNCTION     0.85     1.52     8.27     0  03:02        1.52
  WS02006231           JUNCTION     0.59     1.22     8.34     0  03:02        1.20
  WS02006232           JUNCTION     0.74     1.37     8.41     0  03:02        1.36
  WS02006234           JUNCTION     0.68     1.32     8.47     0  03:02        1.32
  WS02006235           JUNCTION     0.72     1.37     8.53     0  03:02        1.35
  WS02006238           JUNCTION     0.75     1.39     8.53     0  03:01        1.39
  WS02006240           JUNCTION     0.65     1.28     8.57     0  03:00        1.28
  WS02006242           JUNCTION     0.71     1.33     8.60     0  03:00        1.33
  WS02006243           JUNCTION     0.59     1.21     8.63     0  02:59        1.21
  WS02006245           JUNCTION     0.57     1.17     8.65     0  03:03        1.16
  WS02006247           JUNCTION     0.58     1.17     8.67     0  03:03        1.16
  WS02006248           JUNCTION     0.52     1.09     8.68     0  02:57        1.09
  WS02006249           JUNCTION     0.53     1.09     8.69     0  02:56        1.09
  WS02006239           JUNCTION     0.71     1.35     8.56     0  03:02        1.34
  WS02006251           JUNCTION     0.51     2.02     9.69     0  02:56        1.23
  WS02006252           JUNCTION     0.33     1.50     9.74     0  02:56        0.76
  WS02006253           JUNCTION     0.54     2.43    10.07     0  02:56        1.27
  WS02006256           JUNCTION     1.73     2.35     9.28     0  00:00        2.35
  WS02004138           JUNCTION     0.19     0.20     7.45     0  00:00        0.19
  WS02004139           JUNCTION     0.72     0.77     5.68     0  03:08        0.77
  WS02004407           JUNCTION     0.25     0.37     6.68     0  03:03        0.37
  WS02006228           JUNCTION     0.85     1.44     8.09     0  03:02        1.43
  WS02006229           JUNCTION     0.84     1.49     8.18     0  03:02        1.48
  WS02006280           JUNCTION     0.07     0.20     8.47     0  03:02        0.20
  WS02006284           JUNCTION     0.37     0.56     8.96     0  03:02        0.56
  WS02006287           JUNCTION     0.10     0.30     9.25     0  03:01        0.30
  WSF200               JUNCTION     0.25     0.40     5.64     0  03:04        0.40
  HS02004901           JUNCTION     0.12     0.29    10.12     0  03:01        0.29
  HS02004881           JUNCTION     0.01     0.05     9.08     0  02:56        0.04
  HS02004876           JUNCTION     0.04     0.12     9.15     0  02:57        0.12
  HS02004870           JUNCTION     0.01     0.07     9.35     0  03:01        0.07
  HS02004862           JUNCTION     0.02     0.08     9.46     0  03:01        0.08
  HS02004856           JUNCTION     0.08     0.13     9.55     0  03:01        0.13
  HS02004852           JUNCTION     0.01     0.05     9.56     0  03:01        0.05
  HS02004848           JUNCTION     0.01     0.05     9.65     0  03:01        0.05
  HS02004842           JUNCTION     0.33     0.38     9.65     0  03:01        0.38
  HS02004837           JUNCTION     0.03     0.07     9.65     0  03:01        0.07
  HS02004830           JUNCTION     0.04     0.08     9.55     0  03:01        0.08
  HS02004824           JUNCTION     0.02     0.06     9.47     0  03:01        0.06
  HS02004817           JUNCTION     0.44     0.61     9.45     0  03:01        0.61
  HS02004807           JUNCTION     0.12     0.28     9.45     0  03:01        0.28
  HS02004802           JUNCTION     0.16     0.31     9.44     0  03:01        0.31
  HS02004799           JUNCTION     0.12     0.35     9.56     0  03:01        0.35
  HS02004792           JUNCTION     0.03     0.15     9.67     0  03:01        0.15
  HS02004788           JUNCTION     0.02     0.11    10.01     0  03:01        0.11
  HS02004785           JUNCTION     0.04     0.18    10.09     0  03:01        0.18
  HS02004777           JUNCTION     0.15     0.31    10.11     0  03:01        0.31
  HS02004770           JUNCTION     0.12     0.29    10.12     0  03:01        0.29
  HS02004480           JUNCTION     0.08     0.28     9.52     0  03:01        0.28
  HS02004479           JUNCTION     0.11     0.32     9.52     0  03:01        0.32
  HS02004478           JUNCTION     0.06     0.20     9.42     0  03:01        0.20
  YS02001745           JUNCTION     0.74     0.91     8.43     0  03:00        0.91
  YS02001748           JUNCTION     1.14     1.59     8.67     0  02:27        1.34
  YS02001751           JUNCTION     1.32     1.71     8.59     0  02:27        1.54
  YS02001754           JUNCTION     1.58     1.84     8.45     0  02:27        1.80
  YS02001762           JUNCTION     1.78     2.04     8.44     0  03:31        2.01
  YS02001765           JUNCTION     1.73     1.99     8.44     0  03:31        1.96
  YS02001767           JUNCTION     1.69     1.94     8.43     0  02:54        1.92
  YS02001770           JUNCTION     1.69     1.92     8.41     0  02:54        1.91
  YS02001774           JUNCTION     1.76     1.98     8.40     0  02:56        1.97
  YS02001779           JUNCTION     1.50     1.68     8.37     0  02:27        1.68
  YS02001882           JUNCTION     0.52     1.62     8.33     0  03:00        1.61
  YS02001884           JUNCTION     0.61     1.72     8.34     0  02:58        1.71
  YS02001759           JUNCTION     1.81     2.08     8.45     0  03:31        2.05
  YS02001887           JUNCTION     0.69     1.80     8.33     0  02:59        1.79
  YS02001890           JUNCTION     0.72     1.81     8.32     0  02:54        1.81
  YS02001898           JUNCTION     0.49     1.56     8.29     0  03:01        1.55
  YS02001901           JUNCTION     0.61     1.67     8.28     0  03:00        1.67
  YS02001904           JUNCTION     0.59     1.64     8.27     0  02:54        1.63
  YS02001907           JUNCTION     0.92     1.96     8.25     0  02:44        1.96
  YS02001910           JUNCTION     0.71     1.78     8.29     0  02:46        1.76
  YS02001915           JUNCTION     0.50     1.58     8.30     0  02:46        1.57
  YS02001918           JUNCTION     0.25     1.26     8.33     0  02:45        1.23
  YS02001619           JUNCTION     1.29     1.61     8.54     0  02:27        1.50
  YS02001629           JUNCTION     1.64     1.85     8.40     0  02:27        1.84
  YS02001641           JUNCTION     1.74     1.93     8.37     0  02:59        1.93
  YS02001644           JUNCTION     1.74     1.92     8.35     0  02:35        1.92
  YS02001652           JUNCTION     1.59     2.16     8.76     0  03:51        1.96
  YS02001655           JUNCTION     1.35     2.15     9.00     0  03:51        1.88
  YS02001920           JUNCTION     0.36     1.34     8.35     0  02:45        1.30
  YS02001923           JUNCTION     0.20     1.10     8.36     0  02:45        1.06
  YS02001926           JUNCTION     0.26     0.92     8.36     0  02:45        0.91
  YS02001929           JUNCTION     0.15     0.68     8.38     0  02:46        0.66
  YS02001658           JUNCTION     1.08     2.02     9.16     0  02:52        1.79
  YS02001661           JUNCTION     0.84     2.22     9.63     0  03:51        1.66
  YS02001664           JUNCTION     0.37     0.57     8.50     0  02:45        0.56
  YS02001622           JUNCTION     1.31     1.62     8.52     0  02:27        1.51
  YS02001633           JUNCTION     1.73     1.95     8.40     0  02:35        1.94
  YS02001649           JUNCTION     1.79     2.05     8.44     0  02:37        2.05
  YS02001757           JUNCTION     1.91     2.19     8.45     0  03:31        2.15
  YS02001895           JUNCTION     0.48     1.56     8.31     0  03:00        1.56
  YS02001625           JUNCTION     1.59     1.78     8.38     0  02:27        1.78
  YS02163301           JUNCTION     1.67     1.90     8.42     0  02:27        1.88
  YS02163601           JUNCTION     1.78     1.99     8.39     0  02:35        1.98
  YS02164001           JUNCTION     1.72     1.92     8.38     0  02:35        1.91
  YS02001647           JUNCTION     1.57     1.81     8.42     0  03:31        1.79
  YSB1154              JUNCTION     0.26     0.47     9.52     0  03:01        0.47
  YSB6556              JUNCTION     0.15     0.35     9.52     0  03:01        0.35
  YSB1174              JUNCTION     0.21     0.41     9.52     0  03:01        0.41
  YSB1171              JUNCTION     0.41     0.62     9.52     0  03:01        0.62
  YS02006553           JUNCTION     0.92     1.96     8.25     0  02:55        1.96
  YS02006561           JUNCTION     0.29     1.08     7.74     0  02:49        1.07
  YS02006556           JUNCTION     0.89     1.92     8.23     0  02:55        1.91
  YS02006558           JUNCTION     0.93     1.96     8.23     0  02:59        1.95
  YS02001783           JUNCTION     0.49     1.47     7.61     0  02:44        1.47
  YS02001784           JUNCTION     0.51     1.48     7.55     0  02:34        1.40
  YS02001786           JUNCTION     0.45     1.57     7.60     0  02:34        1.25
  YS02001788           JUNCTION     0.37     1.59     7.57     0  02:34        1.12
  YS02001790           JUNCTION     0.47     1.96     7.60     0  06:23        1.29
  YS02001791           JUNCTION     0.41     1.69     7.16     0  04:42        1.27
  YS02001793           JUNCTION     0.53     1.96     6.79     0  02:34        1.82
  WSC                  OUTFALL      0.36     0.46     1.13     0  03:08        0.46
  JK-storage           STORAGE      2.35     5.80     6.60     0  02:34        5.80
  CC-storage           STORAGE      1.17     1.39     8.39     0  03:32        1.39
  XR-storage           STORAGE      6.70     7.72     5.72     0  02:50        7.72
  
  
  *******************
  Node Inflow Summary
  *******************
  
  -------------------------------------------------------------------------------------------------
                                  Maximum  Maximum                  Lateral       Total        Flow
                                  Lateral    Total  Time of Max      Inflow      Inflow     Balance
                                   Inflow   Inflow   Occurrence      Volume      Volume       Error
  Node                 Type           LPS      LPS  days hr:min    10^6 ltr    10^6 ltr     Percent
  -------------------------------------------------------------------------------------------------
  WS02001211           JUNCTION      7.35   389.64     0  03:29       0.207        9.97       0.401
  WS02001212           JUNCTION      0.00   391.88     0  03:28           0        9.93       0.230
  WS02001213           JUNCTION      0.00   393.85     0  03:28           0        9.91       0.288
  WS02003069           JUNCTION      0.32  1224.37     0  03:06     0.00902        20.3       0.155
  WS02003072           JUNCTION      0.00  1224.27     0  03:07           0        20.3       0.190
  WS02003073           JUNCTION      1.82  1226.21     0  03:07      0.0514        20.3       0.214
  WS02003060           JUNCTION     16.53  1223.92     0  03:06       0.466        20.3       0.146
  WS02003066           JUNCTION      0.00   829.86     0  03:05           0          10       0.038
  WS02003059           JUNCTION      0.00   396.90     0  06:00           0        9.88       0.393
  WS02003067           JUNCTION      0.00   829.74     0  03:04           0          10       0.082
  WS02004401           JUNCTION      0.00   831.46     0  03:02           0        10.3       0.185
  WS02004402           JUNCTION      0.00   831.82     0  03:03           0        10.2       0.176
  WS02004403           JUNCTION      0.00   833.01     0  03:02           0        10.2       0.162
  WS02004404           JUNCTION      0.16   832.31     0  03:02     0.00457        10.2       0.125
  WS02004406           JUNCTION      0.00   831.77     0  03:03           0        10.2       0.304
  WS02004409           JUNCTION      0.00   830.82     0  03:03           0        10.1       0.131
  WS02004410           JUNCTION      0.00   830.13     0  03:03           0        10.1       0.151
  WS02004411           JUNCTION      0.00   829.83     0  03:04           0        10.1       0.158
  WS02004412           JUNCTION      0.00   829.72     0  03:04           0        10.1       0.174
  WS02004413           JUNCTION      0.00   829.71     0  03:04           0        10.1       0.265
  WS02004405           JUNCTION      0.04   832.81     0  03:03     0.00107        10.2       0.186
  WS02006109           JUNCTION      1.23   818.28     0  03:02      0.0347        10.3       0.186
  WS02006110           JUNCTION      0.00   818.24     0  03:02           0        10.3       0.164
  WS02006111           JUNCTION      0.00   817.83     0  03:03           0        10.2       0.035
  WS02006112           JUNCTION     16.72   831.19     0  03:02      0.0747        10.3       0.273
  WS02006113           JUNCTION      0.00   818.29     0  03:02           0        10.3       0.079
  WS02006115           JUNCTION      0.00   831.33     0  03:02           0        10.3       0.170
  WS02006116           JUNCTION      0.00   831.72     0  03:02           0        10.3       0.144
  WS02006230           JUNCTION     10.28   536.04     0  06:34        0.29        8.12       0.166
  WS02006231           JUNCTION      0.00   525.39     0  06:34           0        7.84       0.082
  WS02006232           JUNCTION      0.00   525.10     0  06:34           0        7.86       0.193
  WS02006234           JUNCTION      0.00   524.29     0  06:34           0        7.86       0.077
  WS02006235           JUNCTION      0.00   524.08     0  06:34           0        7.93       0.119
  WS02006238           JUNCTION      0.00   395.31     0  04:50           0        4.51       0.118
  WS02006240           JUNCTION      0.00   395.81     0  04:50           0        4.46       0.224
  WS02006242           JUNCTION      0.00   395.91     0  04:50           0        4.46       0.286
  WS02006243           JUNCTION      0.00   396.03     0  04:50           0        4.44       0.074
  WS02006245           JUNCTION      0.00   396.20     0  04:50           0        4.45       0.247
  WS02006247           JUNCTION      0.00   396.12     0  04:50           0        4.45       0.143
  WS02006248           JUNCTION      0.00   396.49     0  04:49           0        4.45       0.102
  WS02006249           JUNCTION      0.00   487.54     0  03:00           0        4.79       0.180
  WS02006239           JUNCTION      0.00   395.59     0  04:50           0        4.48       0.094
  WS02006251           JUNCTION      0.08   487.37     0  03:01     0.00217        4.85       0.177
  WS02006252           JUNCTION      0.00   400.00     0  03:00           0        4.38       0.010
  WS02006253           JUNCTION      1.99   138.63     0  02:55     0.00928        0.47       0.720
  WS02006256           JUNCTION      0.00   983.00     0  02:10           0        10.1      -0.000
  WS02004138           JUNCTION      0.00   380.00     0  00:00           0         9.8       0.061
  WS02004139           JUNCTION      0.32   395.85     0  00:00     0.00905        9.81       0.462
  WS02004407           JUNCTION      0.00   831.48     0  03:03           0        10.1       0.060
  WS02006228           JUNCTION      0.00   817.26     0  03:02           0        10.3       0.139
  WS02006229           JUNCTION      0.00   817.41     0  03:02           0        10.3       0.124
  WS02006280           JUNCTION      0.00   413.63     0  03:02           0        2.17       0.007
  WS02006284           JUNCTION      0.10   413.58     0  03:02      0.0027        2.17       0.042
  WS02006287           JUNCTION      0.00   413.23     0  03:01           0        2.17       0.033
  WSF200               JUNCTION      0.00   829.91     0  03:05           0          10       0.034
  HS02004901           JUNCTION     20.36    20.36     0  03:01      0.0902      0.0904       1.990
  HS02004881           JUNCTION      7.95    90.29     0  02:56      0.0378        0.41       0.105
  HS02004876           JUNCTION     14.96    76.75     0  03:01      0.0728       0.373       0.148
  HS02004870           JUNCTION     14.89    62.15     0  03:01      0.0716         0.3       0.037
  HS02004862           JUNCTION     15.28    47.68     0  03:01      0.0788       0.229       0.076
  HS02004856           JUNCTION     11.18    32.72     0  03:01      0.0539       0.152       0.960
  HS02004852           JUNCTION      0.00    21.94     0  03:01           0      0.0979       0.059
  HS02004848           JUNCTION     34.61    34.61     0  03:01       0.174       0.174       0.028
  HS02004842           JUNCTION      0.00    12.41     0  03:01           0      0.0895      16.998
  HS02004837           JUNCTION     31.84    43.95     0  03:01       0.303        0.38       0.214
  HS02004830           JUNCTION      0.15    43.86     0  03:01     0.00423        0.37       0.335
  HS02004824           JUNCTION     42.39    85.89     0  03:01       0.225       0.594       0.091
  HS02004817           JUNCTION      0.60    86.28     0  03:01      0.0169        0.61       2.809
  HS02004807           JUNCTION     27.35   112.30     0  03:01       0.131       0.726       0.605
  HS02004802           JUNCTION      0.00   111.37     0  03:01           0       0.723       0.548
  HS02004799           JUNCTION     22.08   258.93     0  03:01       0.107        1.24       0.223
  HS02004792           JUNCTION    102.90   237.98     0  03:01        0.47        1.14       0.036
  HS02004788           JUNCTION     34.16   135.93     0  03:01       0.199       0.669       0.059
  HS02004785           JUNCTION      0.15   103.52     0  03:01     0.00423       0.471       0.106
  HS02004777           JUNCTION      0.03   104.16     0  03:01    0.000846       0.472       1.115
  HS02004770           JUNCTION     85.35   105.10     0  03:01       0.385       0.473       0.659
  HS02004480           JUNCTION      0.00   302.46     0  03:01           0        1.46       0.076
  HS02004479           JUNCTION      0.00    44.91     0  03:02           0       0.232       0.317
  HS02004478           JUNCTION      0.00   413.09     0  03:01           0        2.17       0.014
  YS02001745           JUNCTION    336.84   417.78     0  02:26        2.69         2.7       0.409
  YS02001748           JUNCTION      0.04   583.60     0  02:26     0.00127        2.69       0.810
  YS02001751           JUNCTION      0.01   343.35     0  03:01     0.00031        2.65       0.894
  YS02001754           JUNCTION      0.26   343.60     0  03:01     0.00733        2.64       0.946
  YS02001762           JUNCTION      0.00   291.17     0  02:38           0        1.86       1.142
  YS02001765           JUNCTION      0.00   292.45     0  02:38           0        1.87       1.320
  YS02001767           JUNCTION      0.54   292.73     0  02:38      0.0151        1.89       1.919
  YS02001770           JUNCTION    415.94   534.68     0  03:01        3.01        3.31       0.962
  YS02001774           JUNCTION      0.00   535.34     0  03:01           0         1.7       1.484
  YS02001779           JUNCTION      0.01   535.62     0  03:01    0.000141        1.67       0.938
  YS02001882           JUNCTION      0.00    43.16     0  02:36           0      0.0254       9.819
  YS02001884           JUNCTION      0.00    74.88     0  02:36           0      0.0625      11.119
  YS02001759           JUNCTION    399.49   572.87     0  02:38        2.78        4.32       0.535
  YS02001887           JUNCTION    494.68   495.63     0  03:01        3.19        3.22       0.268
  YS02001890           JUNCTION      0.00   495.20     0  03:01           0        3.18       0.292
  YS02001898           JUNCTION      0.00   495.77     0  03:01           0        3.16       0.105
  YS02001901           JUNCTION      0.00   496.18     0  03:01           0        3.16       0.219
  YS02001904           JUNCTION      0.00   496.01     0  03:01           0        3.16       0.204
  YS02001907           JUNCTION      0.00   942.94     0  03:01           0        7.02       0.350
  YS02001910           JUNCTION      0.00   451.20     0  03:00           0        3.87       0.314
  YS02001915           JUNCTION    296.36   451.64     0  03:00        2.25         3.9       0.155
  YS02001918           JUNCTION      0.00   210.63     0  02:46           0        1.66       0.120
  YS02001619           JUNCTION    290.53   290.53     0  03:01        2.24        2.24       0.545
  YS02001629           JUNCTION      0.00   198.97     0  02:17           0        1.69       1.737
  YS02001641           JUNCTION      0.00   398.98     0  02:34           0        4.25       0.502
  YS02001644           JUNCTION    321.01  1311.62     0  03:01        2.59        9.44       0.277
  YS02001652           JUNCTION      0.00   380.96     0  03:00           0        2.35       1.002
  YS02001655           JUNCTION      0.15   379.57     0  03:00     0.00434        2.37       1.057
  YS02001920           JUNCTION      2.87   210.87     0  02:46      0.0809        1.64       0.185
  YS02001923           JUNCTION      0.04   230.42     0  02:47     0.00106        1.56       0.050
  YS02001926           JUNCTION      0.05   184.57     0  02:46     0.00147        1.56       0.210
  YS02001929           JUNCTION    151.13   151.13     0  03:01        1.56        1.56       0.036
  YS02001658           JUNCTION      0.00   605.06     0  02:23           0        2.41       0.941
  YS02001661           JUNCTION      0.00   625.63     0  02:42           0        2.84      -0.434
  YS02001664           JUNCTION    361.21   361.21     0  03:01        2.38        2.83       0.250
  YS02001622           JUNCTION      0.00   291.17     0  03:01           0        2.22       1.449
  YS02001633           JUNCTION    326.74   396.80     0  02:35        2.66        4.31       0.752
  YS02001649           JUNCTION      0.00   826.64     0  02:35           0        5.54       0.667
  YS02001757           JUNCTION      0.00  1578.64     0  02:35           0        9.46       0.978
  YS02001895           JUNCTION      0.00   495.63     0  03:01           0        3.17       0.166
  YS02001625           JUNCTION      0.00   290.62     0  03:01           0        2.19       1.804
  YS02163301           JUNCTION      0.00   205.45     0  02:27           0        1.67       1.452
  YS02163601           JUNCTION      0.11   397.33     0  02:34      0.0031        4.27       0.711
  YS02164001           JUNCTION      0.00   397.69     0  02:35           0        4.25       0.473
  YS02001647           JUNCTION      0.00   607.71     0  03:01           0        4.62       0.613
  YSB1154              JUNCTION     26.18    26.18     0  03:01       0.129        0.13       1.130
  YSB6556              JUNCTION      0.00    25.82     0  03:01           0        0.13       0.969
  YSB1174              JUNCTION     20.52    20.52     0  03:01      0.0948      0.0953       1.368
  YSB1171              JUNCTION      0.00    45.30     0  03:01           0       0.231       2.820
  YS02006553           JUNCTION      0.00   705.31     0  03:31           0        6.56       0.241
  YS02006561           JUNCTION      0.00   982.40     0  03:00           0        9.44       0.009
  YS02006556           JUNCTION      0.00   704.63     0  03:31           0        6.57       0.176
  YS02006558           JUNCTION    433.40   983.48     0  02:59        2.93        9.47       0.055
  YS02001783           JUNCTION      0.00   982.54     0  03:00           0        9.44       0.026
  YS02001784           JUNCTION      1.06   984.28     0  03:01      0.0299        9.47       0.039
  YS02001786           JUNCTION      0.06   983.74     0  03:00     0.00159        9.47       0.037
  YS02001788           JUNCTION      0.07   983.46     0  03:00       0.002        9.46       0.025
  YS02001790           JUNCTION      0.15   983.98     0  03:00     0.00437        9.47       0.020
  YS02001791           JUNCTION      0.00   983.70     0  02:59           0        9.47       0.010
  YS02001793           JUNCTION      0.00   984.05     0  03:00           0        9.49      -0.028
  WSC                  OUTFALL       0.00  1226.37     0  03:08           0        20.3       0.000
  JK-storage           STORAGE       0.00  1135.08     0  02:04           0        9.65     -12.365
  CC-storage           STORAGE       0.00  1579.37     0  02:35           0        8.11       0.794
  XR-storage           STORAGE     844.76   844.76     0  03:01        11.8        12.4      -0.002
  
  
  **********************
  Node Surcharge Summary
  **********************
  
  Surcharging occurs when water rises above the top of the highest conduit.
  ---------------------------------------------------------------------
                                               Max. Height   Min. Depth
                                   Hours       Above Crown    Below Rim
  Node                 Type      Surcharged         Meters       Meters
  ---------------------------------------------------------------------
  WS02004401           JUNCTION        0.32          0.139        1.521
  WS02004402           JUNCTION        0.37          0.138        1.602
  WS02004403           JUNCTION        0.38          0.125        1.905
  WS02004404           JUNCTION        0.55          0.178        2.602
  WS02004406           JUNCTION        0.48          0.117        2.333
  WS02004405           JUNCTION        0.51          0.158        2.642
  WS02006109           JUNCTION        4.33          0.493        1.327
  WS02006110           JUNCTION        1.78          0.242        1.608
  WS02006112           JUNCTION        2.32          0.417        1.263
  WS02006115           JUNCTION        0.20          0.079        2.171
  WS02006116           JUNCTION        0.22          0.085        2.205
  WS02006230           JUNCTION        1.23          0.441        1.129
  WS02006231           JUNCTION        1.71          0.509        1.021
  WS02006232           JUNCTION        4.05          0.667        0.813
  WS02006234           JUNCTION        3.03          0.597        0.643
  WS02006235           JUNCTION        3.39          0.660        0.630
  WS02006238           JUNCTION        3.51          0.669        0.761
  WS02006240           JUNCTION        2.82          0.570        0.820
  WS02006242           JUNCTION        3.00          0.603        0.217
  WS02006243           JUNCTION        2.07          0.499        0.271
  WS02006245           JUNCTION        1.93          0.460        0.390
  WS02006247           JUNCTION        1.95          0.460        0.300
  WS02006248           JUNCTION        1.69          0.374        0.006
  WS02006249           JUNCTION        1.76          0.390        0.000
  WS02006239           JUNCTION        3.01          0.609        0.681
  WS02006251           JUNCTION        0.93          0.988        0.192
  WS02006252           JUNCTION        2.23          1.100        0.000
  WS02006253           JUNCTION        0.96          1.390        1.090
  WS02006256           JUNCTION        6.88          2.050        0.000
  WS02006228           JUNCTION        4.29          0.613        1.587
  YS02001748           JUNCTION        5.31          0.509        0.681
  YS02001751           JUNCTION        5.48          0.711        0.489
  YS02001754           JUNCTION        5.70          0.790        0.360
  YS02001762           JUNCTION        5.87          1.042        0.108
  YS02001765           JUNCTION        5.84          0.987        0.113
  YS02001767           JUNCTION        5.81          0.940        0.090
  YS02001770           JUNCTION        5.80          0.887        0.033
  YS02001774           JUNCTION        5.86          0.979        0.071
  YS02001779           JUNCTION        5.68          0.680        0.000
  YS02001882           JUNCTION        0.90          0.619        0.211
  YS02001884           JUNCTION        0.93          0.658        0.212
  YS02001759           JUNCTION        5.89          1.085        0.125
  YS02001887           JUNCTION        0.99          0.747        0.203
  YS02001890           JUNCTION        1.02          0.760        0.000
  YS02001898           JUNCTION        0.86          0.526        0.214
  YS02001901           JUNCTION        0.96          0.673        0.197
  YS02001904           JUNCTION        0.94          0.636        0.214
  YS02001907           JUNCTION        1.75          0.950        0.000
  YS02001910           JUNCTION        1.06          0.779        0.321
  YS02001915           JUNCTION        0.89          0.585        0.415
  YS02001918           JUNCTION        0.71          0.265        0.545
  YS02001619           JUNCTION        5.47          0.610        0.000
  YS02001629           JUNCTION        5.49          0.470        0.000
  YS02001641           JUNCTION        5.85          0.935        0.165
  YS02001644           JUNCTION        5.85          0.920        0.000
  YS02001652           JUNCTION        5.73          1.130        0.000
  YS02001655           JUNCTION        5.50          1.151        0.049
  YS02001920           JUNCTION        0.74          0.338        0.802
  YS02001658           JUNCTION        5.34          1.021        0.279
  YS02001661           JUNCTION        0.23          1.155        0.235
  YS02001622           JUNCTION        5.51          0.620        0.000
  YS02001633           JUNCTION        5.83          0.928        0.132
  YS02001649           JUNCTION        5.87          1.050        0.000
  YS02001757           JUNCTION        5.98          1.190        0.020
  YS02001895           JUNCTION        0.87          0.564        0.186
  YS02001625           JUNCTION        5.76          0.780        0.000
  YS02163301           JUNCTION        5.81          0.902        0.128
  YS02163601           JUNCTION        5.87          0.994        0.086
  YS02164001           JUNCTION        5.84          0.924        0.176
  YS02001647           JUNCTION        5.75          0.806        0.094
  YS02006553           JUNCTION        1.85          0.965        0.225
  YS02006561           JUNCTION        0.76          0.281        0.869
  YS02006556           JUNCTION        1.31          0.879        0.471
  YS02006558           JUNCTION        1.26          0.859        0.541
  YS02001783           JUNCTION        1.04          0.670        0.930
  YS02001784           JUNCTION        1.02          0.682        0.808
  YS02001786           JUNCTION        0.96          0.773        0.657
  YS02001788           JUNCTION        0.91          0.789        0.691
  YS02001790           JUNCTION        1.52          1.157        0.000
  YS02001791           JUNCTION        1.62          0.892        1.028
  YS02001793           JUNCTION        1.88          0.957        1.643
  
  
  *********************
  Node Flooding Summary
  *********************
  
  Flooding refers to all water that overflows a node, whether it ponds or not.
  --------------------------------------------------------------------------
                                                             Total   Maximum
                                 Maximum   Time of Max       Flood    Ponded
                        Hours       Rate    Occurrence      Volume     Depth
  Node                 Flooded       LPS   days hr:min    10^6 ltr    Meters
  --------------------------------------------------------------------------
  WS02006249              0.87    264.99      0  03:02       0.330     0.000
  WS02006252              0.01     30.78      0  02:56       0.000     0.000
  WS02006256              4.04    810.34      0  03:02       6.624     0.000
  YS02001779              2.54    535.61      0  03:01       1.645     0.000
  YS02001890              0.01      1.01      0  03:00       0.000     0.000
  YS02001907              0.58    394.16      0  03:01       0.442     0.000
  YS02001619              0.01     18.54      0  02:27       0.000     0.000
  YS02001629              0.01     29.97      0  02:27       0.000     0.000
  YS02001644              3.90   1310.91      0  03:01       7.417     0.000
  YS02001652              0.01      2.49      0  03:51       0.000     0.000
  YS02001622              0.01     17.41      0  02:27       0.000     0.000
  YS02001649              0.06     37.16      0  03:54       0.002     0.000
  YS02001625              1.20    235.93      0  03:01       0.465     0.000
  YS02001790              0.01    132.77      0  06:23       0.000     0.000
  JK-storage              0.61    815.44      0  02:40       0.768     0.000
  XR-storage              3.14    464.73      0  03:01       1.990     0.000
  
  
  **********************
  Storage Volume Summary
  **********************
  
  --------------------------------------------------------------------------------------------------
                         Average     Avg  Evap Exfil       Maximum     Max    Time of Max    Maximum
                          Volume    Pcnt  Pcnt  Pcnt        Volume    Pcnt     Occurrence    Outflow
  Storage Unit           1000 m3    Full  Loss  Loss       1000 m3    Full    days hr:min        LPS
  --------------------------------------------------------------------------------------------------
  JK-storage               0.118      41     0     0         0.291     100       0  02:34     983.00
  CC-storage               3.258      21     0     0         3.883      25       0  03:32     400.00
  XR-storage               0.804      87     0     0         0.926     100       0  02:50     380.00
  
  
  ***********************
  Outfall Loading Summary
  ***********************
  
  ---------------------------------------------------------------------------------------------------------------------------------
                         Flow       Avg       Max       Total         Total         Total         Total         Total         Total
                         Freq      Flow      Flow      Volume           COD            SS            TN            TP         NH4-N
  Outfall Node           Pcnt       LPS       LPS    10^6 ltr            kg            kg            kg            kg            kg
  ---------------------------------------------------------------------------------------------------------------------------------
  WSC                   99.98    809.85   1226.37      20.257      2347.780      4015.979       150.999        17.773        91.415
  ---------------------------------------------------------------------------------------------------------------------------------
  System                99.98    809.85   1226.37      20.257      2347.780      4015.979       150.999        17.773        91.415
  
  
  ********************
  Link Flow Summary
  ********************
  
  -----------------------------------------------------------------------------
                                 Maximum  Time of Max   Maximum    Max/    Max/
                                  |Flow|   Occurrence   |Veloc|    Full    Full
  Link                 Type          LPS  days hr:min     m/sec    Flow   Depth
  -----------------------------------------------------------------------------
  WS02003066WSF200     CONDUIT    829.91     0  03:05      2.94    0.14    0.30
  WS02006287WS02006284 CONDUIT    413.48     0  03:02      2.04    0.19    0.30
  WS02006284WS02006280 CONDUIT    413.63     0  03:02      2.28    0.17    0.28
  WS02006280WS02006229 CONDUIT    413.63     0  03:02      3.60    0.09    0.25
  WS02006229WS02006228 CONDUIT    817.26     0  03:02      1.63    2.71    1.00
  WS02006256WS02006235 CONDUIT    288.92     0  00:00      4.23    3.06    1.00
  WS02006253WS02006251 CONDUIT    128.38     0  05:30      0.60    0.38    1.00
  WS02006252WS02006251 CONDUIT    403.92     0  06:34      3.21    1.48    1.00
  WS02006251WS02006249 CONDUIT    487.54     0  03:00      1.27    1.41    1.00
  WS02006249WS02006248 CONDUIT    396.49     0  04:49      1.19    2.17    1.00
  WS02006248WS02006247 CONDUIT    396.12     0  04:50      1.16    0.86    1.00
  WS02006247WS02006245 CONDUIT    396.20     0  04:50      1.13    3.14    1.00
  WS02006245WS02006243 CONDUIT    396.03     0  04:50      1.17    1.17    1.00
  WS02006243WS02006242 CONDUIT    395.91     0  04:50      1.05    0.85    1.00
  WS02006242WS02006240 CONDUIT    395.81     0  04:50      1.03    1.57    1.00
  WS02006240WS02006239 CONDUIT    395.59     0  04:50      1.03    1.24    1.00
  WS02006239WS02006238 CONDUIT    395.31     0  04:50      1.03    1.26    1.00
  WS02006238WS02006235 CONDUIT    395.36     0  04:49      1.45    0.88    1.00
  WS02006235WS02006234 CONDUIT    524.29     0  06:34      1.36    5.53    1.00
  WS02006234WS02006232 CONDUIT    525.10     0  06:34      1.39    1.06    1.00
  WS02006232WS02006231 CONDUIT    525.39     0  06:34      1.37    1.10    1.00
  WS02006231WS02006230 CONDUIT    525.76     0  06:34      1.42    7.98    1.00
  WS02006230WS02006229 CONDUIT    533.84     0  06:35      1.39   11.88    1.00
  WS02006228WS02006109 CONDUIT    817.05     0  03:02      1.63    3.57    1.00
  WS02006116WS02004401 CONDUIT    831.46     0  03:02      1.06    1.15    1.00
  WS02006115WS02006116 CONDUIT    831.72     0  03:02      1.06    1.07    1.00
  WS02006113WS02006111 CONDUIT    817.83     0  03:03      2.59    0.98    0.81
  WS02006112WS02006115 CONDUIT    831.33     0  03:02      1.06    0.49    1.00
  WS02006111WS02006112 CONDUIT    818.24     0  03:03      1.74    0.39    0.90
  WS02006110WS02006113 CONDUIT    818.29     0  03:02      1.76    0.74    0.90
  WS02006109WS02006110 CONDUIT    818.24     0  03:02      1.63    1.57    1.00
  WS02004411WS02004412 CONDUIT    829.72     0  03:04      1.16    1.18    0.85
  WS02004401WS02004402 CONDUIT    831.82     0  03:03      1.06    1.00    1.00
  WS02004413WS02003067 CONDUIT    829.74     0  03:04      1.42    0.36    0.70
  WS02004412WS02004413 CONDUIT    829.71     0  03:04      1.10    0.56    0.91
  WS02004410WS02004411 CONDUIT    829.83     0  03:04      1.15    1.13    0.86
  WS02004409WS02004410 CONDUIT    830.13     0  03:03      1.15    1.07    0.87
  WS02004407WS02004409 CONDUIT    830.82     0  03:03      1.65    0.29    0.62
  WS02004406WS02004407 CONDUIT    831.48     0  03:03      1.45    0.37    0.69
  WS02004405WS02004406 CONDUIT    831.77     0  03:03      1.10    1.64    1.00
  WS02004404WS02004405 CONDUIT    832.77     0  03:03      1.15    8.16    1.00
  WS02004403WS02004404 CONDUIT    832.15     0  03:02      1.06    0.60    1.00
  WS02004402WS02004403 CONDUIT    833.01     0  03:02      1.06    1.20    1.00
  WS02004139WS02001211 CONDUIT    382.29     0  03:29      0.90    0.48    0.63
  WS02004138WS02004139 CONDUIT    395.52     0  00:00      3.64    0.08    0.46
  WS02003067WS02003066 CONDUIT    829.86     0  03:05      1.54    0.27    0.48
  WS02001213WS02003059 CONDUIT    396.90     0  06:00      0.89    0.65    0.84
  WS02001212WS02001213 CONDUIT    393.85     0  03:28      1.32    0.61    0.53
  WS02001211WS02001212 CONDUIT    391.88     0  03:28      0.78    0.30    0.69
  WS02003072WS02003073 CONDUIT   1224.39     0  03:07      1.90    2.64    0.55
  WS02003069WS02003072 CONDUIT   1224.27     0  03:07      1.77    0.59    0.59
  WS02003060WS02003069 CONDUIT   1224.05     0  03:06      1.99    0.48    0.54
  WS02003059WS02003060 CONDUIT    401.53     0  05:59      0.95    0.26    0.74
  HS02004901HS02004770 CONDUIT     20.53     0  03:01      0.07    0.08    0.42
  HS02004876HS02004881 CONDUIT     76.55     0  03:01      0.95    0.81    0.12
  HS02004870HS02004876 CONDUIT     61.90     0  03:01      0.65    0.04    0.14
  HS02004842HS02004848 CONDUIT     12.41     0  03:01      0.06    0.01    0.31
  HS02004837HS02004842 CONDUIT     12.98     0  03:02      0.42    0.01    0.32
  HS02004830HS02004837 CONDUIT     43.71     0  03:01      0.57    0.04    0.11
  HS02004824HS02004830 CONDUIT     43.67     0  03:01      0.59    0.06    0.11
  HS02004817HS02004824 CONDUIT     85.68     0  03:01      0.26    0.04    0.48
  HS02004770HS02004777 CONDUIT    104.13     0  03:01      0.35    0.19    0.43
  HS02004799HS02004480 CONDUIT    258.31     0  03:01      0.83    0.33    0.44
  HS02004792HS02004799 CONDUIT    237.05     0  03:01      0.95    0.15    0.36
  HS02004788HS02004792 CONDUIT    135.43     0  03:01      1.06    0.09    0.18
  HS02004785HS02004788 CONDUIT    103.22     0  03:02      0.71    0.78    0.21
  HS02004777HS02004785 CONDUIT    103.37     0  03:01      0.42    0.13    0.35
  HS02004480HS02004478 CONDUIT    302.30     0  03:01      1.26    1.27    0.34
  HS02004479HS02004480 CONDUIT     46.29     0  03:02      0.32    0.04    0.43
  HS02004862HS02004870 CONDUIT     47.43     0  03:01      0.66    0.05    0.10
  HS02004848HS02004852 CONDUIT     21.94     0  03:01      0.45    0.02    0.07
  HS02004856HS02004862 CONDUIT     32.47     0  03:01      0.48    0.03    0.10
  HS02004852HS02004856 CONDUIT     21.85     0  03:02      0.25    0.02    0.13
  HS02004802HS02004478 CONDUIT    111.52     0  03:02      0.45    0.10    0.36
  HS02004478WS02006287 CONDUIT    413.23     0  03:01      1.75    0.12    0.26
  HS02004817HS02004807 CONDUIT     86.14     0  03:01      0.19    0.05    0.63
  HS02004807HS02004802 CONDUIT    111.37     0  03:01      0.38    0.21    0.42
  YS02001759YS02001757 CONDUIT    573.79     0  02:38      0.73    0.41    1.00
  YS02001762YS02001759 CONDUIT    292.57     0  02:28      0.37    0.34    1.00
  YS02001765YS02001762 CONDUIT    291.17     0  02:38      0.37    0.27    1.00
  YS02001770YS02001767 CONDUIT    292.19     0  02:38      0.37    1.16    1.00
  YS02001774YS02001770 CONDUIT    535.34     0  03:01      0.68    0.34    1.00
  YS02001779YS02001774 CONDUIT    535.61     0  03:01      0.68    0.27    1.00
  YS02001649YS02001757 CONDUIT    828.25     0  02:35      1.05    0.50    1.00
  YS02001767YS02001765 CONDUIT    292.45     0  02:38      0.37    0.37    1.00
  YS02006561YS02001783 CONDUIT    982.54     0  03:00      2.15    0.51    1.00
  YS02001783YS02001784 CONDUIT    983.22     0  03:01      1.96    1.36    1.00
  YS02001784YS02001785 CONDUIT    983.69     0  03:00      1.96    2.29    1.00
  YS02001788YS02001790 CONDUIT    983.83     0  03:00      2.44    0.73    1.00
  YS02001790YS02001791 CONDUIT    983.70     0  02:59      2.91    1.07    1.00
  YS02001791YS02001793 CONDUIT    984.05     0  03:00      5.75    0.42    1.00
  YS02001910YS02001907 CONDUIT    451.74     0  03:00      0.58    0.25    1.00
  YS02001786YS02001788 CONDUIT    983.39     0  03:00      2.31    1.89    1.00
  YS02001915YS02001910 CONDUIT    451.20     0  03:00      0.59    0.22    1.00
  YS02001918YS02001915 CONDUIT    246.47     0  03:31      0.44    0.14    1.00
  YS02001923YS02001920 CONDUIT    208.00     0  02:46      0.72    0.09    1.00
  YS02001926YS02001923 CONDUIT    230.38     0  02:47      0.83    0.33    0.89
  YS02001929YS02001926 CONDUIT    184.51     0  02:46      0.89    0.09    0.79
  YS02001920YS02001918 CONDUIT    210.63     0  02:46      0.70    0.20    1.00
  YS02001629YS02163301 CONDUIT    205.45     0  02:27      0.26    0.25    1.00
  YS02001619YS02001622 CONDUIT    291.17     0  03:01      0.61    0.43    1.00
  YS02001622YS02001625 CONDUIT    290.62     0  03:01      0.37    0.16    1.00
  YS02001625YS02001629 CONDUIT    198.97     0  02:17      0.26    0.09    1.00
  YS02163301YS02001633 CONDUIT    207.10     0  02:27      0.26    0.19    1.00
  YS02163601YS02164001 CONDUIT    397.69     0  02:35      0.51    0.35    1.00
  YS02164001YS02001641 CONDUIT    398.98     0  02:34      0.51    0.54    1.00
  YS02001641YS02001644 CONDUIT    399.28     0  02:34      0.51    1.29    1.00
  YS02001647YS02001649 CONDUIT    607.71     0  03:01      0.77    0.32    1.00
  YS02006553YS02006556 CONDUIT    704.63     0  03:31      0.90    0.60    1.00
  YS02006556YS02006558 CONDUIT    705.47     0  03:31      0.90    0.56    1.00
  YSB6556YSB1171       CONDUIT     25.77     0  03:03      0.09    0.03    0.70
  YS02001907YS02006553 CONDUIT    705.31     0  03:31      0.78    0.83    1.00
  YS02006558YS02006561 CONDUIT    982.40     0  03:00      3.47    2.17    1.00
  YS02001633YS02163601 CONDUIT    397.22     0  02:34      0.51    0.42    1.00
  YS02001644YS02001647 CONDUIT    609.34     0  03:01      0.78    0.36    1.00
  YS02001745YS02001748 CONDUIT    583.56     0  02:26      1.47    0.22    0.96
  YS02001748YS02001751 CONDUIT    343.34     0  03:01      1.06    0.17    1.00
  YS02001751YS02001754 CONDUIT    343.34     0  03:01      0.92    0.17    1.00
  YS02001754YS02001757 CONDUIT    343.21     0  03:01      0.44    0.14    1.00
  YS02001882YS02001884 CONDUIT     43.16     0  02:36      0.13    0.05    1.00
  YS02001884YS02001887 CONDUIT     74.88     0  02:36      0.10    0.10    1.00
  YS02001890YS02001895 CONDUIT    495.63     0  03:01      0.63    0.23    1.00
  YS02001895YS02001898 CONDUIT    495.77     0  03:01      0.63    0.86    1.00
  YS02001898YS02001901 CONDUIT    496.18     0  03:01      0.63    0.32    1.00
  YS02001901YS02001904 CONDUIT    496.01     0  03:01      0.63    0.77    1.00
  YS02001904YS02001907 CONDUIT    496.27     0  03:01      0.63    0.17    1.00
  YS02001887YS02001890 CONDUIT    495.20     0  03:01      0.63    0.85    1.00
  YS02001652YS02001649 CONDUIT    382.34     0  03:00      0.63    0.19    1.00
  YS02001655YS02001652 CONDUIT    380.96     0  03:00      0.98    0.19    1.00
  YS02001658YS02001655 CONDUIT    379.42     0  03:00      1.22    0.16    1.00
  YS02001661YS02001658 CONDUIT    605.06     0  02:23      1.55    0.24    1.00
  YS02001664YS02001661 CONDUIT    625.63     0  02:42      1.43    0.20    0.76
  YSB1154YSB6556       CONDUIT     25.82     0  03:01      0.17    0.05    0.59
  YSB1174YSB1171       CONDUIT     20.15     0  03:01      0.07    0.03    0.70
  YSB1171HS02004479    CONDUIT     44.91     0  03:02      0.54    0.03    0.55
  HS02004881HS02006253 CONDUIT    126.27     0  02:56      2.14    0.02    0.54
  YS02001793JiankangQianchi CONDUIT   1135.08     0  02:04     17.50    0.09    1.00
  YS02001757CaochengTiaoxuchi CONDUIT   1579.37     0  02:35      2.02    0.69    1.00
  WSF200WS02003060     CONDUIT    830.10     0  03:05      1.85    0.18    0.42
  1                    CONDUIT   1226.37     0  03:08      3.51    0.43    0.46
  CC-Pump-1            PUMP       200.00     0  03:00              1.00
  CC-Pump-2            PUMP       200.00     0  03:00              1.00
  JK-Pump-1            PUMP       300.00     0  00:00              1.00
  JK-Pump-2            PUMP       683.00     0  02:10              1.00
  XR-Pump-1            PUMP        95.00     0  00:00              1.00
  XR-Pump-2            PUMP        95.00     0  00:00              1.00
  XR-Pump-3            PUMP        95.00     0  00:00              1.00
  XR-Pump-4            PUMP        95.00     0  00:00              1.00
  
  
  ***************************
  Flow Classification Summary
  ***************************
  
  -------------------------------------------------------------------------------------
                      Adjusted    ---------- Fraction of Time in Flow Class ---------- 
                       /Actual         Up    Down  Sub   Sup   Up    Down  Norm  Inlet 
  Conduit               Length    Dry  Dry   Dry   Crit  Crit  Crit  Crit  Ltd   Ctrl  
  -------------------------------------------------------------------------------------
  WS02003066WSF200        1.00   0.01  0.02  0.00  0.00  0.97  0.00  0.00  0.60  0.00
  WS02006287WS02006284    1.00   0.03  0.01  0.00  0.64  0.32  0.00  0.00  0.62  0.00
  WS02006284WS02006280    1.00   0.04  0.00  0.00  0.00  0.00  0.00  0.96  0.00  0.00
  WS02006280WS02006229    1.00   0.04  0.00  0.00  0.00  0.01  0.00  0.95  0.02  0.00
  WS02006229WS02006228    1.00   0.00  0.00  0.00  1.00  0.00  0.00  0.00  0.00  0.00
  WS02006256WS02006235    1.00   0.00  0.00  0.00  1.00  0.00  0.00  0.00  0.00  0.00
  WS02006253WS02006251    1.00   0.02  0.01  0.00  0.96  0.00  0.01  0.00  0.00  0.00
  WS02006252WS02006251    1.00   0.17  0.00  0.00  0.09  0.00  0.75  0.00  0.00  0.00
  WS02006251WS02006249    1.00   0.00  0.00  0.00  1.00  0.00  0.00  0.00  0.20  0.00
  WS02006249WS02006248    1.00   0.00  0.01  0.00  0.93  0.00  0.07  0.00  0.00  0.00
  WS02006248WS02006247    1.00   0.01  0.00  0.00  0.99  0.00  0.00  0.00  0.14  0.00
  WS02006247WS02006245    1.00   0.00  0.00  0.00  0.99  0.00  0.00  0.00  0.00  0.00
  WS02006245WS02006243    1.00   0.00  0.00  0.00  0.97  0.00  0.00  0.03  0.00  0.00
  WS02006243WS02006242    1.00   0.00  0.00  0.00  1.00  0.00  0.00  0.00  0.21  0.00
  WS02006242WS02006240    1.00   0.00  0.00  0.00  1.00  0.00  0.00  0.00  0.00  0.00
  WS02006240WS02006239    1.00   0.00  0.00  0.00  0.96  0.00  0.00  0.04  0.01  0.00
  WS02006239WS02006238    1.00   0.00  0.00  0.00  1.00  0.00  0.00  0.00  0.12  0.00
  WS02006238WS02006235    1.00   0.00  0.00  0.00  1.00  0.00  0.00  0.00  0.00  0.00
  WS02006235WS02006234    1.00   0.00  0.00  0.00  0.97  0.00  0.03  0.00  0.00  0.00
  WS02006234WS02006232    1.00   0.00  0.00  0.00  1.00  0.00  0.00  0.00  0.08  0.00
  WS02006232WS02006231    1.00   0.00  0.00  0.00  1.00  0.00  0.00  0.00  0.00  0.00
  WS02006231WS02006230    1.00   0.00  0.00  0.00  0.75  0.00  0.25  0.00  0.00  0.00
  WS02006230WS02006229    1.00   0.00  0.00  0.00  1.00  0.00  0.00  0.00  0.00  0.00
  WS02006228WS02006109    1.00   0.00  0.00  0.00  1.00  0.00  0.00  0.00  0.00  0.00
  WS02006116WS02004401    1.00   0.01  0.00  0.00  0.99  0.00  0.00  0.00  0.00  0.00
  WS02006115WS02006116    1.00   0.01  0.00  0.00  0.99  0.00  0.00  0.00  0.00  0.00
  WS02006113WS02006111    1.00   0.01  0.00  0.00  0.02  0.98  0.00  0.00  0.15  0.00
  WS02006112WS02006115    1.00   0.01  0.00  0.00  0.99  0.00  0.00  0.00  0.00  0.00
  WS02006111WS02006112    1.00   0.01  0.00  0.00  0.99  0.00  0.00  0.00  0.92  0.00
  WS02006110WS02006113    1.00   0.00  0.00  0.00  0.99  0.00  0.00  0.00  0.00  0.00
  WS02006109WS02006110    1.00   0.00  0.00  0.00  0.99  0.00  0.00  0.00  0.00  0.00
  WS02004411WS02004412    1.00   0.02  0.00  0.00  0.98  0.00  0.00  0.00  0.00  0.00
  WS02004401WS02004402    1.00   0.01  0.00  0.00  0.99  0.00  0.00  0.00  0.00  0.00
  WS02004413WS02003067    1.00   0.02  0.01  0.00  0.00  0.00  0.98  0.00  0.00  0.00
  WS02004412WS02004413    1.00   0.02  0.00  0.00  0.98  0.00  0.00  0.00  0.01  0.00
  WS02004410WS02004411    1.00   0.02  0.00  0.00  0.98  0.00  0.00  0.00  0.00  0.00
  WS02004409WS02004410    1.00   0.01  0.00  0.00  0.99  0.00  0.00  0.00  0.02  0.00
  WS02004407WS02004409    1.00   0.01  0.00  0.00  0.98  0.00  0.00  0.00  0.95  0.00
  WS02004406WS02004407    1.00   0.00  0.01  0.00  0.99  0.00  0.00  0.00  0.00  0.00
  WS02004405WS02004406    1.00   0.00  0.00  0.00  1.00  0.00  0.00  0.00  0.00  0.00
  WS02004404WS02004405    1.00   0.00  0.00  0.00  1.00  0.00  0.00  0.00  0.00  0.00
  WS02004403WS02004404    1.00   0.00  0.01  0.00  0.99  0.00  0.00  0.00  0.00  0.00
  WS02004402WS02004403    1.00   0.01  0.00  0.00  0.99  0.00  0.00  0.00  0.00  0.00
  WS02004139WS02001211    1.00   0.00  0.00  0.00  1.00  0.00  0.00  0.00  0.00  0.00
  WS02004138WS02004139    1.00   0.00  0.00  0.00  1.00  0.00  0.00  0.00  1.00  0.00
  WS02003067WS02003066    1.00   0.02  0.00  0.00  0.97  0.00  0.00  0.00  0.00  0.00
  WS02001213WS02003059    1.00   0.00  0.00  0.00  1.00  0.00  0.00  0.00  0.00  0.00
  WS02001212WS02001213    1.00   0.00  0.00  0.00  0.94  0.00  0.06  0.00  0.00  0.00
  WS02001211WS02001212    1.00   0.00  0.00  0.00  1.00  0.00  0.00  0.00  0.00  0.00
  WS02003072WS02003073    1.00   0.00  0.00  0.00  0.00  0.00  0.00  1.00  0.00  0.00
  WS02003069WS02003072    1.00   0.00  0.00  0.00  1.00  0.00  0.00  0.00  0.09  0.00
  WS02003060WS02003069    1.00   0.00  0.00  0.00  0.99  0.01  0.00  0.00  0.07  0.00
  WS02003059WS02003060    1.00   0.00  0.00  0.00  1.00  0.00  0.00  0.00  0.01  0.00
  HS02004901HS02004770    1.00   0.03  0.00  0.00  0.97  0.00  0.00  0.00  0.00  0.00
  HS02004876HS02004881    1.00   0.01  0.00  0.00  0.93  0.06  0.00  0.00  0.00  0.00
  HS02004870HS02004876    1.00   0.00  0.00  0.00  0.99  0.00  0.00  0.00  0.95  0.00
  HS02004842HS02004848    1.00   0.00  0.03  0.00  0.97  0.00  0.00  0.00  0.55  0.00
  HS02004837HS02004842    1.00   0.00  0.00  0.00  1.00  0.00  0.00  0.00  0.11  0.00
  HS02004830HS02004837    1.00   0.00  0.00  0.00  1.00  0.00  0.00  0.00  0.99  0.00
  HS02004824HS02004830    1.00   0.00  0.00  0.00  1.00  0.00  0.00  0.00  0.00  0.00
  HS02004817HS02004824    1.00   0.00  0.00  0.00  1.00  0.00  0.00  0.00  1.00  0.00
  HS02004770HS02004777    1.00   0.00  0.03  0.00  0.97  0.00  0.00  0.00  0.02  0.00
  HS02004799HS02004480    1.00   0.00  0.01  0.00  0.96  0.00  0.03  0.00  0.00  0.00
  HS02004792HS02004799    1.00   0.00  0.00  0.00  1.00  0.00  0.00  0.00  0.98  0.00
  HS02004788HS02004792    1.00   0.00  0.00  0.00  1.00  0.00  0.00  0.00  0.98  0.00
  HS02004785HS02004788    1.00   0.00  0.00  0.00  1.00  0.00  0.00  0.00  0.00  0.00
  HS02004777HS02004785    1.00   0.00  0.00  0.00  1.00  0.00  0.00  0.00  0.12  0.00
  HS02004480HS02004478    1.00   0.04  0.00  0.00  0.73  0.00  0.00  0.23  0.00  0.00
  HS02004479HS02004480    1.00   0.01  0.00  0.00  0.99  0.00  0.00  0.00  0.11  0.00
  HS02004862HS02004870    1.00   0.00  0.00  0.00  1.00  0.00  0.00  0.00  0.03  0.00
  HS02004848HS02004852    1.00   0.03  0.00  0.00  0.97  0.00  0.00  0.00  0.62  0.00
  HS02004856HS02004862    1.00   0.00  0.04  0.00  0.96  0.00  0.00  0.00  0.83  0.00
  HS02004852HS02004856    1.00   0.03  0.00  0.00  0.96  0.00  0.00  0.00  0.85  0.00
  HS02004802HS02004478    1.00   0.03  0.00  0.00  0.96  0.00  0.00  0.00  0.02  0.00
  HS02004478WS02006287    1.00   0.04  0.00  0.00  0.79  0.17  0.00  0.00  0.64  0.00
  HS02004817HS02004807    1.00   0.00  0.03  0.00  0.97  0.00  0.00  0.00  0.01  0.00
  HS02004807HS02004802    1.00   0.03  0.00  0.00  0.96  0.00  0.00  0.00  0.00  0.00
  YS02001759YS02001757    1.00   0.00  0.00  0.00  1.00  0.00  0.00  0.00  0.16  0.00
  YS02001762YS02001759    1.00   0.00  0.00  0.00  1.00  0.00  0.00  0.00  0.03  0.00
  YS02001765YS02001762    1.00   0.00  0.00  0.00  1.00  0.00  0.00  0.00  0.13  0.00
  YS02001770YS02001767    1.00   0.00  0.00  0.00  1.00  0.00  0.00  0.00  0.00  0.00
  YS02001774YS02001770    1.00   0.00  0.03  0.00  0.96  0.00  0.00  0.00  0.03  0.00
  YS02001779YS02001774    1.00   0.00  0.00  0.00  1.00  0.00  0.00  0.00  0.18  0.00
  YS02001649YS02001757    1.00   0.00  0.00  0.00  1.00  0.00  0.00  0.00  0.16  0.00
  YS02001767YS02001765    1.00   0.00  0.00  0.00  1.00  0.00  0.00  0.00  0.00  0.00
  YS02006561YS02001783    1.00   0.05  0.00  0.00  0.27  0.69  0.00  0.00  0.47  0.00
  YS02001783YS02001784    1.00   0.00  0.05  0.00  0.95  0.00  0.00  0.00  0.00  0.00
  YS02001784YS02001785    1.00   0.00  0.00  0.00  1.00  0.00  0.00  0.00  0.17  0.00
  YS02001788YS02001790    1.00   0.00  0.00  0.00  0.30  0.70  0.00  0.00  0.41  0.00
  YS02001790YS02001791    1.00   0.00  0.00  0.00  0.26  0.74  0.00  0.00  0.51  0.00
  YS02001791YS02001793    1.00   0.00  0.00  0.00  0.30  0.70  0.00  0.00  0.03  0.00
  YS02001910YS02001907    1.00   0.00  0.00  0.00  0.99  0.00  0.00  0.01  0.12  0.00
  YS02001786YS02001788    1.00   0.00  0.00  0.00  0.28  0.72  0.00  0.00  0.00  0.00
  YS02001915YS02001910    1.00   0.00  0.00  0.00  0.99  0.01  0.00  0.00  0.15  0.00
  YS02001918YS02001915    1.00   0.00  0.00  0.00  0.99  0.01  0.00  0.00  0.55  0.00
  YS02001923YS02001920    1.00   0.00  0.00  0.00  1.00  0.00  0.00  0.00  0.84  0.00
  YS02001926YS02001923    1.00   0.00  0.02  0.00  0.11  0.00  0.87  0.00  0.00  0.00
  YS02001929YS02001926    1.00   0.00  0.03  0.00  0.97  0.00  0.00  0.00  0.77  0.00
  YS02001920YS02001918    1.00   0.00  0.00  0.00  1.00  0.00  0.00  0.00  0.00  0.00
  YS02001629YS02163301    1.00   0.04  0.00  0.00  0.96  0.00  0.00  0.00  0.00  0.00
  YS02001619YS02001622    1.00   0.03  0.00  0.00  0.97  0.00  0.00  0.00  0.00  0.00
  YS02001622YS02001625    1.00   0.03  0.00  0.00  0.97  0.00  0.00  0.00  0.04  0.00
  YS02001625YS02001629    1.00   0.03  0.01  0.00  0.94  0.00  0.02  0.00  0.00  0.00
  YS02163301YS02001633    1.00   0.00  0.04  0.00  0.96  0.00  0.00  0.00  0.00  0.00
  YS02163601YS02164001    1.00   0.00  0.02  0.00  0.98  0.00  0.00  0.00  0.00  0.00
  YS02164001YS02001641    1.00   0.00  0.02  0.00  0.98  0.00  0.00  0.00  0.06  0.00
  YS02001641YS02001644    1.00   0.00  0.00  0.00  1.00  0.00  0.00  0.00  0.00  0.00
  YS02001647YS02001649    1.00   0.00  0.04  0.00  0.96  0.00  0.00  0.00  0.01  0.00
  YS02006553YS02006556    1.00   0.00  0.00  0.00  1.00  0.00  0.00  0.00  0.03  0.00
  YS02006556YS02006558    1.00   0.00  0.00  0.00  1.00  0.00  0.00  0.00  0.00  0.00
  YSB6556YSB1171          1.00   0.01  0.02  0.00  0.97  0.00  0.00  0.00  0.00  0.00
  YS02001907YS02006553    1.00   0.00  0.01  0.00  0.99  0.00  0.00  0.00  0.00  0.00
  YS02006558YS02006561    1.00   0.05  0.00  0.00  0.11  0.84  0.00  0.00  0.48  0.00
  YS02001633YS02163601    1.00   0.00  0.00  0.00  1.00  0.00  0.00  0.00  0.15  0.00
  YS02001644YS02001647    1.00   0.00  0.04  0.00  0.96  0.00  0.00  0.00  0.00  0.00
  YS02001745YS02001748    1.00   0.00  0.00  0.00  0.92  0.00  0.00  0.08  0.04  0.00
  YS02001748YS02001751    1.00   0.00  0.00  0.00  0.97  0.03  0.00  0.00  0.15  0.00
  YS02001751YS02001754    1.00   0.00  0.00  0.00  0.95  0.00  0.00  0.05  0.02  0.00
  YS02001754YS02001757    1.00   0.00  0.00  0.00  1.00  0.00  0.00  0.00  0.18  0.00
  YS02001882YS02001884    1.00   0.04  0.00  0.00  0.96  0.00  0.00  0.00  0.00  0.00
  YS02001884YS02001887    1.00   0.02  0.01  0.00  0.97  0.00  0.00  0.00  0.00  0.00
  YS02001890YS02001895    1.00   0.00  0.04  0.00  0.96  0.00  0.00  0.00  0.00  0.00
  YS02001895YS02001898    1.00   0.04  0.00  0.00  0.95  0.00  0.01  0.00  0.00  0.00
  YS02001898YS02001901    1.00   0.04  0.00  0.00  0.96  0.00  0.00  0.00  0.01  0.00
  YS02001901YS02001904    1.00   0.04  0.00  0.00  0.96  0.00  0.00  0.00  0.00  0.00
  YS02001904YS02001907    1.00   0.00  0.04  0.00  0.96  0.00  0.00  0.00  0.00  0.00
  YS02001887YS02001890    1.00   0.00  0.00  0.00  0.99  0.00  0.01  0.00  0.00  0.00
  YS02001652YS02001649    1.00   0.00  0.00  0.00  1.00  0.00  0.00  0.00  0.16  0.00
  YS02001655YS02001652    1.00   0.00  0.00  0.00  0.95  0.00  0.00  0.05  0.02  0.00
  YS02001658YS02001655    1.00   0.00  0.04  0.00  0.94  0.03  0.00  0.00  0.08  0.00
  YS02001661YS02001658    1.00   0.04  0.00  0.00  0.92  0.05  0.00  0.00  0.08  0.00
  YS02001664YS02001661    1.00   0.03  0.00  0.00  0.93  0.04  0.00  0.00  0.19  0.00
  YSB1154YSB6556          1.00   0.03  0.00  0.00  0.97  0.00  0.00  0.00  0.01  0.00
  YSB1174YSB1171          1.00   0.02  0.01  0.00  0.97  0.00  0.00  0.00  0.00  0.00
  YSB1171HS02004479       1.00   0.01  0.00  0.00  0.98  0.00  0.00  0.00  0.10  0.00
  HS02004881HS02006253    1.00   0.02  0.00  0.00  0.76  0.01  0.00  0.21  0.58  0.00
  YS02001793JiankangQianchi    1.00   0.00  0.00  0.00  0.62  0.38  0.00  0.00  0.41  0.00
  YS02001757CaochengTiaoxuchi    1.00   0.00  0.06  0.00  0.94  0.00  0.00  0.00  0.00  0.00
  WSF200WS02003060        1.00   0.00  0.01  0.00  0.97  0.02  0.00  0.00  0.30  0.00
  1                       1.00   0.00  0.00  0.00  0.00  1.00  0.00  0.00  0.49  0.00
  
  
  *************************
  Conduit Surcharge Summary
  *************************
  
  ----------------------------------------------------------------------------
                                                           Hours        Hours 
                         --------- Hours Full --------   Above Full   Capacity
  Conduit                Both Ends  Upstream  Dnstream   Normal Flow   Limited
  ----------------------------------------------------------------------------
  WS02006229WS02006228        4.29      4.38      4.29      5.09         4.29
  WS02006256WS02006235        6.15      6.16      6.88      4.46         0.01
  WS02006253WS02006251        1.66      1.66      1.74      0.01         0.01
  WS02006252WS02006251        1.44      1.44      2.23      1.94         0.01
  WS02006251WS02006249        1.67      1.68      1.76      1.15         0.85
  WS02006249WS02006248        1.69      1.69      1.76      3.98         0.01
  WS02006248WS02006247        1.74      1.74      1.95      0.01         0.01
  WS02006247WS02006245        1.93      1.99      1.93      4.37         1.89
  WS02006245WS02006243        1.96      1.97      2.07      0.35         0.22
  WS02006243WS02006242        2.13      2.13      2.99      0.01         0.01
  WS02006242WS02006240        2.82      2.82      3.14      2.03         0.01
  WS02006240WS02006239        2.87      2.89      3.01      1.00         0.65
  WS02006239WS02006238        3.21      3.24      3.51      1.08         0.76
  WS02006238WS02006235        3.47      3.47      3.75      0.01         0.01
  WS02006235WS02006234        3.03      3.03      3.39      6.10         0.01
  WS02006234WS02006232        3.24      3.24      4.05      0.81         0.80
  WS02006232WS02006231        1.71      1.71      4.05      0.96         0.01
  WS02006231WS02006230        1.23      1.23      1.80      6.17         0.01
  WS02006230WS02006229        4.65      4.98      4.65      6.26         4.65
  WS02006228WS02006109        4.33      4.54      4.33      5.59         4.33
[...]
  YS02001765YS02001762        5.84      5.84      5.87      0.01         0.01
  YS02001770YS02001767        5.81      5.81      5.81      0.19         0.77
  YS02001774YS02001770        5.80      5.80      5.86      0.01         0.01
  YS02001779YS02001774        5.68      5.68      5.86      0.01         0.01
  YS02001649YS02001757        5.87      5.87      5.98      0.01         0.01
  YS02001767YS02001765        5.81      5.81      5.84      0.01         0.01
  YS02006561YS02001783        0.76      0.76      1.04      0.01         0.01
  YS02001783YS02001784        1.02      1.04      1.02      1.40         1.00
  YS02001784YS02001785        0.96      1.02      0.96      2.39         0.96
  YS02001788YS02001790        0.91      0.91      1.52      0.01         0.01
  YS02001790YS02001791        1.52      1.52      1.62      0.87         0.84
  YS02001791YS02001793        1.62      1.62      1.97      0.01         0.01
  YS02001910YS02001907        1.06      1.06      1.75      0.01         0.01
  YS02001786YS02001788        0.91      0.96      0.91      1.96         0.91
  YS02001915YS02001910        0.89      0.89      1.06      0.01         0.01
  YS02001918YS02001915        0.71      0.71      0.89      0.01         0.01
  YS02001923YS02001920        0.53      0.53      0.74      0.01         0.01
  YS02001920YS02001918        0.71      0.71      0.74      0.01         0.01
  YS02001629YS02163301        5.80      5.80      5.81      0.01         0.01
  YS02001619YS02001622        5.47      5.47      5.51      0.01         0.01
  YS02001622YS02001625        5.51      5.51      5.76      0.01         0.01
  YS02001625YS02001629        5.49      5.49      5.76      0.01         0.01
  YS02163301YS02001633        5.81      5.81      5.84      0.01         0.01
  YS02163601YS02164001        5.84      5.84      5.87      0.01         0.01
  YS02164001YS02001641        5.84      5.84      5.85      0.01         0.03
  YS02001641YS02001644        5.85      5.85      5.85      1.52         1.59
  YS02001647YS02001649        5.75      5.75      5.87      0.01         0.01
  YS02006553YS02006556        1.30      1.30      1.85      0.01         0.01
  YS02006556YS02006558        1.52      1.52      1.93      0.01         0.01
  YS02001907YS02006553        2.41      2.41      2.63      0.01         0.01
  YS02006558YS02006561        0.90      1.26      0.90      2.23         0.90
  YS02001633YS02163601        5.83      5.83      5.87      0.01         0.01
  YS02001644YS02001647        5.75      5.75      5.85      0.01         0.01
  YS02001745YS02001748        0.01      0.01      5.31      0.01         0.01
  YS02001748YS02001751        5.36      5.36      5.48      0.01         0.01
  YS02001751YS02001754        5.47      5.47      5.70      0.01         0.01
  YS02001754YS02001757        5.74      5.74      5.98      0.01         0.01
  YS02001882YS02001884        0.90      0.90      0.93      0.01         0.01
  YS02001884YS02001887        0.97      0.97      0.99      0.01         0.01
  YS02001890YS02001895        0.87      0.87      1.07      0.01         0.01
  YS02001895YS02001898        0.86      0.86      0.87      0.01         0.01
  YS02001898YS02001901        0.88      0.88      0.96      0.01         0.01
  YS02001901YS02001904        0.94      0.94      0.96      0.01         0.01
  YS02001904YS02001907        0.94      0.94      1.89      0.01         0.01
  YS02001887YS02001890        1.02      1.02      1.03      0.01         0.01
  YS02001652YS02001649        5.76      5.76      5.87      0.01         0.01
  YS02001655YS02001652        5.50      5.50      5.73      0.01         0.01
  YS02001658YS02001655        5.33      5.33      5.50      0.01         0.01
  YS02001661YS02001658        0.21      0.21      5.33      0.01         0.01
  YS02001664YS02001661        0.01      0.01      1.07      0.01         0.01
  HS02004881HS02006253        0.01      0.01      0.96      0.01         0.01
  YS02001793JiankangQianchi        1.88      1.88      3.83      0.01         0.01
  YS02001757CaochengTiaoxuchi        5.21      5.21      5.98      0.01         0.01
  
  
  ***************
  Pumping Summary
  ***************
  
  ---------------------------------------------------------------------------------------------------------
                                                  Min       Avg       Max     Total     Power    % Time Off
                        Percent   Number of      Flow      Flow      Flow    Volume     Usage    Pump Curve
  Pump                 Utilized   Start-Ups       LPS       LPS       LPS  10^6 ltr     Kw-hr    Low   High
  ---------------------------------------------------------------------------------------------------------
  CC-Pump-1               63.82           2      0.00    173.37    200.00     3.060      3.05    0.0    0.0
  CC-Pump-2               38.28           4      0.00     99.53    200.00     1.320      1.71    0.0    0.0
  JK-Pump-1               61.69           5      0.00    228.69    300.00     3.834     60.39    0.0    0.0
  JK-Pump-2               53.18           4      0.00    412.30    683.00     6.267     93.94    0.0   96.3
  XR-Pump-1               95.74           3      0.00     93.39     95.00     2.451     22.34    0.0    0.0
  XR-Pump-2               95.74           3      0.00     93.39     95.00     2.451     22.34    0.0    0.0
  XR-Pump-3               95.74           3      0.00     93.39     95.00     2.451     22.34    0.0    0.0
  XR-Pump-4               95.74           3      0.00     93.39     95.00     2.451     22.34    0.0    0.0
  
  
  ***************************
  Link Pollutant Load Summary
  ***************************
  
  ------------------------------------------------------------------------------------------
                                 COD            SS            TN            TP         NH4-N
  Link                            kg            kg            kg            kg            kg
  ------------------------------------------------------------------------------------------
  WS02003066WSF200           820.922      1508.458        21.764         1.903        11.479
  WS02006287WS02006284       268.076       498.246         9.347         0.943         5.214
  WS02006284WS02006280       268.563       499.030         9.394         0.949         5.244
  WS02006280WS02006229       268.527       498.963         9.392         0.949         5.243
  WS02006229WS02006228       821.318      1509.187        21.336         1.839        11.192
  WS02006256WS02006235       187.332       343.072         4.185         0.328         2.124
  WS02006253WS02006251        51.936        99.932         1.182         0.090         0.590
  WS02006252WS02006251       359.368       650.559         7.545         0.542         3.710
  WS02006251WS02006249       403.498       736.446         8.582         0.623         4.233
  WS02006249WS02006248       373.845       681.959         7.958         0.577         3.927
  WS02006248WS02006247       373.606       681.574         7.953         0.577         3.924
  WS02006247WS02006245       373.148       680.759         7.942         0.576         3.918
  WS02006245WS02006243       372.510       679.704         7.924         0.575         3.909
  WS02006243WS02006242       372.435       679.596         7.924         0.575         3.909
  WS02006242WS02006240       371.711       678.351         7.907         0.573         3.900
  WS02006240WS02006239       371.916       678.835         7.909         0.573         3.901
  WS02006239WS02006238       373.280       681.289         7.949         0.577         3.923
  WS02006238WS02006235       373.818       682.127         7.967         0.579         3.933
  WS02006235WS02006234       556.907      1017.459        12.047         0.899         6.003
  WS02006234WS02006232       556.269      1016.326        12.038         0.898         5.999
  WS02006232WS02006231       555.555      1015.065        12.021         0.897         5.991
  WS02006231WS02006230       554.998      1014.064        12.010         0.896         5.985
  WS02006230WS02006229       553.757      1011.917        11.976         0.894         5.968
  WS02006228WS02006109       820.236      1507.307        21.304         1.836        11.175
  WS02006116WS02004401       830.477      1525.262        22.043         1.928        11.628
  WS02006115WS02006116       831.868      1527.689        22.088         1.932        11.653
  WS02006113WS02006111       825.790      1515.804        22.023         1.929        11.632
  WS02006112WS02006115       833.204      1530.030        22.134         1.937        11.679
  WS02006111WS02006112       825.092      1514.559        22.003         1.927        11.621
  WS02006110WS02006113       826.364      1516.792        22.044         1.931        11.643
  WS02006109WS02006110       827.623      1518.979        22.090         1.936        11.669
  WS02004411WS02004412       823.128      1512.309        21.854         1.913        11.531
  WS02004401WS02004402       829.114      1522.879        21.995         1.923        11.602
  WS02004413WS02003067       821.263      1509.057        21.776         1.904        11.485
  WS02004412WS02004413       822.345      1510.949        21.823         1.909        11.513
  WS02004410WS02004411       823.738      1513.367        21.878         1.915        11.544
  WS02004409WS02004410       824.416      1514.545        21.905         1.918        11.560
  WS02004407WS02004409       824.938      1515.446        21.925         1.920        11.571
  WS02004406WS02004407       825.029      1515.591        21.927         1.920        11.572
  WS02004405WS02004406       826.293      1517.775        21.982         1.926        11.604
  WS02004404WS02004405       827.222      1519.417        21.997         1.926        11.610
  WS02004403WS02004404       826.802      1518.850        21.913         1.915        11.556
  WS02004402WS02004403       827.879      1520.732        21.953         1.919        11.578
  WS02004139WS02001211      1386.411      2284.475       115.221        14.109        71.153
  WS02004138WS02004139      1392.919      2295.219       115.747        14.173        71.477
  WS02003067WS02003066       821.059      1508.703        21.769         1.904        11.482
  WS02001213WS02003059      1419.671      2336.979       118.626        14.538        73.290
  WS02001212WS02001213      1428.920      2352.161       119.401        14.633        73.769
  WS02001211WS02001212      1430.743      2355.131       119.559        14.653        73.868
  WS02003072WS02003073      2341.593      4006.229       150.348        17.690        91.005
  WS02003069WS02003072      2346.504      4014.349       150.736        17.738        91.244
  WS02003060WS02003069      2348.926      4018.443       150.897        17.757        91.341
  WS02003059WS02003060      1416.867      2332.316       118.407        14.512        73.156
  HS02004901HS02004770        10.270        19.477         0.195         0.015         0.091
  HS02004876HS02004881        37.320        72.584         0.843         0.062         0.416
  HS02004870HS02004876        28.162        54.632         0.678         0.051         0.338
  HS02004842HS02004848         5.467        10.276         0.115         0.008         0.053
  HS02004837HS02004842        10.072        17.582         0.584         0.067         0.347
  HS02004830HS02004837        65.640       112.706         4.557         0.546         2.785
  HS02004824HS02004830        66.391       113.910         4.628         0.555         2.830
  HS02004817HS02004824        88.209       156.981         5.083         0.584         3.051
  HS02004770HS02004777        39.297        75.468         0.819         0.055         0.377
  HS02004799HS02004480       131.417       245.385         3.680         0.335         1.933
  HS02004792HS02004799       119.091       220.673         3.497         0.327         1.853
  HS02004788HS02004792        68.398       126.863         2.388         0.235         1.309
  HS02004785HS02004788        40.735        77.764         0.969         0.074         0.471
  HS02004777HS02004785        40.060        76.669         0.909         0.067         0.434
  HS02004480HS02004478       165.962       312.616         4.244         0.375         2.196
  HS02004479HS02004480        38.148        72.979         0.884         0.079         0.462
  HS02004862HS02004870        21.017        40.120         0.536         0.043         0.270
  HS02004848HS02004852         8.058        15.280         0.167         0.011         0.077
  HS02004856HS02004862        14.072        27.342         0.284         0.019         0.133
  HS02004852HS02004856         8.065        15.291         0.167         0.011         0.077
  HS02004802HS02004478       102.893       186.900         5.163         0.576         3.055
  HS02004478WS02006287       268.272       498.574         9.364         0.945         5.225
  HS02004817HS02004807        86.892       154.869         4.957         0.568         2.973
  HS02004807HS02004802       103.118       187.252         5.195         0.580         3.075
  YS02001759YS02001757       336.152       611.196         6.746         0.466         3.296
  YS02001762YS02001759       151.011       273.868         3.257         0.229         1.615
  YS02001765YS02001762       151.400       275.109         3.284         0.231         1.631
  YS02001770YS02001767       151.757       277.411         3.103         0.203         1.508
  YS02001774YS02001770       178.001       342.009         3.458         0.228         1.672
  YS02001779YS02001774       176.942       339.841         3.542         0.242         1.732
  YS02001649YS02001757       300.710       534.349         6.053         0.421         2.903
  YS02001767YS02001765       152.369       277.389         3.318         0.234         1.649
  YS02006561YS02001783       935.836      1716.216        19.828         1.488         9.895
  YS02001783YS02001784       935.686      1715.969        19.823         1.487         9.893
  YS02001784YS02001785       942.998      1727.680        20.536         1.577        10.339
  YS02001788YS02001790       943.546      1728.551        20.608         1.586        10.385
  YS02001790YS02001791       944.636      1730.324        20.716         1.600        10.453
  YS02001791YS02001793       944.557      1730.175        20.713         1.599        10.451
  YS02001910YS02001907       330.076       599.161         8.231         0.642         4.253
  YS02001786YS02001788       943.167      1727.953        20.563         1.580        10.356
  YS02001915YS02001910       330.184       599.334         8.188         0.636         4.223
  YS02001918YS02001915       159.931       277.986         4.661         0.433         2.537
  YS02001923YS02001920       137.636       241.456         2.675         0.188         1.302
  YS02001926YS02001923       136.671       239.883         2.594         0.178         1.253
  YS02001929YS02001926       136.171       239.030         2.555         0.174         1.228
  YS02001920YS02001918       157.905       274.001         4.592         0.427         2.499
  YS02001629YS02163301       103.467       183.325         2.170         0.140         1.012
  YS02001619YS02001622       146.391       262.924         3.031         0.197         1.414
  YS02001622YS02001625       145.231       261.088         3.003         0.195         1.401
  YS02001625YS02001629       104.564       185.142         2.194         0.141         1.023
  YS02163301YS02001633       103.189       182.857         2.163         0.140         1.009
  YS02163601YS02164001       361.973       646.072         7.115         0.502         3.403
  YS02164001YS02001641       361.489       645.257         7.095         0.500         3.392
  YS02001641YS02001644       361.719       645.568         7.094         0.500         3.391
  YS02001647YS02001649       349.907       630.295         6.938         0.483         3.309
  YS02006553YS02006556       657.397      1199.952        14.231         1.095         7.177
  YS02006556YS02006558       657.322      1199.799        14.198         1.090         7.156
  YSB6556YSB1171              21.954        42.199         0.451         0.038         0.229
  YS02001907YS02006553       657.527      1200.219        14.245         1.097         7.187
  YS02006558YS02006561       935.866      1716.264        19.828         1.488         9.895
  YS02001633YS02163601       362.683       647.178         7.095         0.498         3.387
  YS02001644YS02001647       356.952       642.821         7.057         0.492         3.365
  YS02001745YS02001748       210.374       386.942         4.760         0.334         2.380
  YS02001748YS02001751       208.345       383.110         4.797         0.343         2.413
  YS02001751YS02001754       207.397       381.557         4.780         0.342         2.406
  YS02001754YS02001757       208.166       382.716         4.944         0.365         2.512
  YS02001882YS02001884         3.287         5.700         0.066         0.005         0.033
  YS02001884YS02001887         6.761        11.975         0.132         0.010         0.066
  YS02001890YS02001895       389.325       720.395         7.187         0.539         3.507
  YS02001895YS02001898       389.132       720.119         7.180         0.539         3.503
  YS02001898YS02001901       388.912       719.744         7.175         0.538         3.501
  YS02001901YS02001904       388.762       719.531         7.182         0.539         3.506
  YS02001904YS02001907       388.967       719.837         7.235         0.546         3.540
  YS02001887YS02001890       390.119       721.579         7.241         0.546         3.540
  YS02001652YS02001649       151.338       277.009         3.085         0.222         1.447
  YS02001655YS02001652       151.874       277.883         3.100         0.223         1.454
  YS02001658YS02001655       151.370       277.091         3.013         0.211         1.397
  YS02001661YS02001658       155.338       284.208         3.093         0.217         1.434
  YS02001664YS02001661       176.113       318.847         3.553         0.248         1.645
  YSB1154YSB6556              21.533        41.530         0.402         0.032         0.198
  YSB1174YSB1171              14.655        28.292         0.298         0.024         0.150
  YSB1171HS02004479           38.107        72.913         0.888         0.079         0.465
  HS02004881HS02006253        42.361        82.744         0.929         0.068         0.457
  YS02001793JiankangQianchi       948.825      1737.134        20.894         1.618        10.555
  YS02001757CaochengTiaoxuchi       613.997      1098.649        13.045         0.930         6.413
  WSF200WS02003060           821.039      1508.681        21.769         1.904        11.482
  1                         2347.780      4015.979       150.999        17.773        91.415
  CC-Pump-1                  250.235       452.835         5.256         0.377         2.585
  CC-Pump-2                  109.161       197.773         2.290         0.164         1.126
  JK-Pump-1                  234.007       430.755         5.155         0.401         2.607
  JK-Pump-2                  469.575       873.692         9.825         0.740         4.901
  XR-Pump-1                  349.192       575.380        29.019         3.553        17.920
  XR-Pump-2                  349.192       575.380        29.019         3.553        17.920
  XR-Pump-3                  349.192       575.380        29.019         3.553        17.920
  XR-Pump-4                  349.192       575.380        29.019         3.553        17.920
  

  Analysis begun on:  Fri Jul 16 10:24:20 2021
  Analysis ended on:  Fri Jul 16 10:24:23 2021
  Total elapsed time: 00:00:03