
  EPA STORM WATER MANAGEMENT MODEL - VERSION 5.1 (Build 5.3.0.dev0)
  --------------------------------------------------------------

  WARNING 04: minimum elevation drop used for Conduit WS02004404WS02004405
  WARNING 03: negative offset ignored for Link YS02001904YS02001907
  
  *********************************************************
  NOTE: The summary statistics displayed in this report are
  based on results found at every computational time step,  
  not just on results from each reporting time step.
  *********************************************************
  
  ****************
  Analysis Options
  ****************
  Flow Units ............... LPS
  Process Models:
    Rainfall/Runoff ........ YES
    RDII ................... NO
    Snowmelt ............... NO
    Groundwater ............ NO
    Flow Routing ........... YES
    Ponding Allowed ........ NO
    Water Quality .......... YES
  Infiltration Method ...... HORTON
  Flow Routing Method ...... DYNWAVE
  Surcharge Method ......... EXTRAN
  Starting Date ............ 08/28/2015 08:00:00
  Ending Date .............. 08/28/2015 15:50:00
  Antecedent Dry Days ...... 8.0
  Report Time Step ......... 00:01:00
  Wet Time Step ............ 00:01:00
  Dry Time Step ............ 00:01:00
  Routing Time Step ........ 5.00 sec
  Variable Time Step ....... YES
  Maximum Trials ........... 8
  Number of Threads ........ 4
  Head Tolerance ........... 0.001500 m
  
  
  **************************        Volume         Depth
  Runoff Quantity Continuity     hectare-m            mm
  **************************     ---------       -------
  Total Precipitation ......         6.144        13.452
  Evaporation Loss .........         0.000         0.000
  Infiltration Loss ........         1.064         2.328
  Surface Runoff ...........         4.147         9.079
  Final Storage ............         0.935         2.047
  Continuity Error (%) .....        -0.020
  
  
  **************************           COD            SS            TN            TP         NH4-N
  Runoff Quality Continuity             kg            kg            kg            kg            kg
  **************************    ----------    ----------    ----------    ----------    ----------
  Initial Buildup ..........     41378.656     70582.865      1804.177       168.684      1032.807
  Surface Buildup ..........        21.799        40.924         2.400         0.218         1.395
  Wet Deposition ...........         0.000         0.000         0.000         0.000         0.000
  Sweeping Removal .........         0.000         0.000         0.000         0.000         0.000
  Infiltration Loss ........        97.311       184.943         1.849         0.130         0.881
  BMP Removal ..............         0.000         0.000         0.000         0.000         0.000
  Surface Runoff ...........      3769.819      7064.251        72.781         4.964        34.599
  Remaining Buildup ........     37531.916     63371.884      1731.919       163.806       998.709
  Continuity Error (%) .....         0.003         0.004         0.002         0.001         0.001
  
  
  **************************        Volume        Volume
  Flow Routing Continuity        hectare-m      10^6 ltr
  **************************     ---------     ---------
  Dry Weather Inflow .......         0.616         6.165
  Wet Weather Inflow .......         4.145        41.451
  Groundwater Inflow .......         0.000         0.000
  RDII Inflow ..............         0.000         0.000
  External Inflow ..........         0.102         1.024
  External Outflow .........         2.031        20.314
  Flooding Loss ............         2.394        23.938
  Evaporation Loss .........         0.000         0.000
  Exfiltration Loss ........         0.000         0.000
  Initial Stored Volume ....         0.076         0.761
  Final Stored Volume ......         0.632         6.323
  Continuity Error (%) .....        -2.378
  
  
  **************************           COD            SS            TN            TP         NH4-N
  Quality Routing Continuity            kg            kg            kg            kg            kg
  **************************    ----------    ----------    ----------    ----------    ----------
  Dry Weather Inflow .......      1541.201      2465.922       147.955        18.494        92.472
  Wet Weather Inflow .......      3769.058      7062.994        72.764         4.963        34.592
  Groundwater Inflow .......         0.000         0.000         0.000         0.000         0.000
  RDII Inflow ..............         0.000         0.000         0.000         0.000         0.000
  External Inflow ..........       183.418       293.469        17.608         2.201        11.005
  External Outflow .........      2434.244      4216.380       150.158        17.552        90.561
  Flooding Loss ............      2391.406      4457.449        61.093         5.315        32.068
  Exfiltration Loss ........         0.000         0.000         0.000         0.000         0.000
  Mass Reacted .............         0.000         0.000         0.000         0.000         0.000
  Initial Stored Mass ......         0.000         0.000         0.000         0.000         0.000
  Final Stored Mass ........       530.352       912.788        23.789         2.541        13.788
  Continuity Error (%) .....         2.506         2.400         1.379         0.979         1.196
  
  
  *************************
  Highest Continuity Errors
  *************************
  Node HS02004842 (13.41%)
  Node JK-storage (-11.08%)
  Node YS02001884 (10.64%)
  Node HS02004817 (2.53%)
  Node YSB1171 (2.46%)
  
  
  ***************************
  Time-Step Critical Elements
  ***************************
  Link WS02006252WS02006251 (61.67%)
  Link WS02006280WS02006229 (11.40%)
  Link WS02004404WS02004405 (7.90%)
  Link WS02006238WS02006235 (4.90%)
  Link YS02001793JiankangQianchi (2.95%)
  
  
  ********************************
  Highest Flow Instability Indexes
  ********************************
  Link YS02163601YS02164001 (38)
  Link YS02163301YS02001633 (37)
  Link WS02006113WS02006111 (37)
  Link WS02006238WS02006235 (37)
  Link YS02001629YS02163301 (36)
  
  
  *************************
  Routing Time Step Summary
  *************************
  Minimum Time Step           :     0.45 sec
  Average Time Step           :     1.21 sec
  Maximum Time Step           :     5.00 sec
  Percent in Steady State     :    -0.00
  Average Iterations per Step :     4.35
  Percent Not Converging      :    20.07
  
  
  ***************************
  Subcatchment Runoff Summary
  ***************************
  
  ------------------------------------------------------------------------------------------------------------------------------
                            Total      Total      Total      Total     Imperv       Perv      Total       Total     Peak  Runoff
                           Precip      Runon       Evap      Infil     Runoff     Runoff     Runoff      Runoff   Runoff   Coeff
  Subcatchment                 mm         mm         mm         mm         mm         mm         mm    10^6 ltr      LPS
  ------------------------------------------------------------------------------------------------------------------------------
  sub0                      13.45       0.00       0.00       0.63      12.47       0.31      12.77        0.01     3.75   0.950
  sub1                      13.45       0.00       0.00       1.12      11.88       0.36      12.24        0.08    25.66   0.910
  sub2                      13.45       0.00       0.00       4.44       8.39       0.53       8.92        0.08    25.29   0.663
  sub3                      13.45       0.00       0.00       4.56       8.35       0.42       8.77        0.20    55.75   0.652
  sub4                      13.45       0.00       0.00       1.22      11.71       0.26      11.97        0.25    65.52   0.890
  sub5                      13.45       0.00       0.00       0.68      12.41       0.26      12.67        0.14    44.76   0.942
  sub7                      13.45       0.00       0.00       0.86      12.18       0.35      12.53        0.04    14.26   0.931
  sub8                      13.45       0.00       0.00       0.87      12.17       0.34      12.50        0.08    26.26   0.930
  sub9                      13.45       0.00       0.00       0.88      12.17       0.33      12.50        0.06    19.64   0.929
  sub10                     13.45       0.00       0.00       0.78      12.29       0.29      12.58        0.14    44.00   0.935
  sub11                     13.45       0.00       0.00       0.77      12.30       0.31      12.61        0.15    48.45   0.938
  sub12                     13.45       0.00       0.00       1.25      11.66       0.50      12.16        0.11    38.10   0.904
  sub14                     13.45       0.00       0.00       0.88      12.16       0.33      12.49        0.12    38.67   0.929
  sub15                     13.45       0.00       0.00       3.37       9.35       0.66      10.01        0.17    57.01   0.744
  sub16                     13.45       0.00       0.00       3.56       8.97       0.88       9.85        0.10    37.63   0.732
  sub17                     13.45       0.00       0.00       3.47       9.10       0.84       9.94        0.09    30.67   0.739
  sub22                     13.45       0.00       0.00       4.98       7.63       0.81       8.43        0.53   184.54   0.627
  sub23                     13.45       0.00       0.00       4.17       8.43       0.81       9.24        0.44   154.22   0.687
  sub60                     13.45       0.00       0.00       1.53       9.85       0.09       9.93        3.01   438.14   0.738
  sub61                     13.45       0.00       0.00       2.16       9.95       0.12      10.07        3.11   536.45   0.749
  sub62                     13.45       0.00       0.00       0.98      10.84       0.10      10.94        3.36   552.35   0.813
  sub63                     13.45       0.00       0.00       3.77       8.69       0.14       8.83        2.67   492.63   0.656
  sub64                     13.45       0.00       0.00       1.93       9.45       0.09       9.54        2.90   416.72   0.709
  sub65                     13.45       0.00       0.00       1.67       9.61       0.08       9.70        2.98   423.09   0.721
  sub66                     13.45       0.00       0.00       3.81       8.10       0.09       8.18        2.51   380.66   0.608
  sub67                     13.45       0.00       0.00       0.95      11.38       0.13      11.51        3.55   679.52   0.856
  sub68                     13.45       0.00       0.00       1.75      10.45       0.13      10.59        3.26   586.26   0.787
  sub69                     13.45       0.00       0.00       1.83      10.79       0.19      10.98        2.57   544.72   0.816
  sub70                     13.45      11.20       0.00       7.51      14.65       0.88      15.52        3.55   494.81   0.630
  sub71                     13.45       0.00       0.00       0.99      10.58       0.09      10.67        2.52   389.24   0.793
  sub72                     13.45       0.00       0.00       0.89       8.56       0.05       8.61        1.75   189.18   0.640
  1                         13.45      15.11       0.00       1.37      16.56       4.63      21.19        4.98   484.42   0.742
  2                         13.45       0.00       0.00       3.02       3.21       1.96       5.17        2.07   340.45   0.384
  
  
  ****************************
  Subcatchment Washoff Summary
  ****************************
  
  ------------------------------------------------------------------------------------------
                                 COD            SS            TN            TP         NH4-N
  Subcatchment                    kg            kg            kg            kg            kg
  ------------------------------------------------------------------------------------------
  sub0                         2.670         5.197         0.046         0.004         0.022
  sub1                        11.241        22.423         0.210         0.015         0.101
  sub2                         6.894        13.384         0.145         0.010         0.067
  sub3                        16.924        32.573         0.350         0.024         0.161
  sub4                        25.772        51.904         0.510         0.031         0.245
  sub5                        25.778        50.682         0.460         0.035         0.223
  sub7                         5.751        11.638         0.108         0.007         0.052
  sub8                         8.581        17.755         0.171         0.010         0.082
  sub9                         7.353        15.005         0.142         0.009         0.068
  sub10                       21.202        42.223         0.389         0.028         0.188
  sub11                       20.657        41.614         0.386         0.026         0.187
  sub12                       17.724        35.094         0.321         0.024         0.155
  sub14                       15.732        31.800         0.298         0.020         0.144
  sub15                       20.231        39.321         0.389         0.028         0.182
  sub16                       13.129        25.518         0.249         0.019         0.117
  sub17                       12.049        23.208         0.222         0.017         0.105
  sub22                       62.582       119.432         1.186         0.090         0.554
  sub23                       36.683        72.439         0.776         0.051         0.357
  sub60                      243.520       456.962         4.842         0.298         2.321
  sub61                      302.151       564.434         5.627         0.386         2.710
  sub62                      313.722       596.076         6.119         0.388         2.938
  sub63                      223.275       410.850         4.468         0.314         2.075
  sub64                      305.877       553.773         5.626         0.410         2.687
  sub65                      313.037       569.066         5.795         0.415         2.772
  sub66                      176.068       321.340         3.608         0.236         1.687
  sub67                      466.222       877.505         8.365         0.616         4.045
  sub68                      332.037       626.413         6.347         0.429         3.034
  sub69                      298.258       568.561         5.590         0.393         2.674
  sub70                      502.897       962.303        10.037         0.699         4.710
  sub71                      206.745       396.330         4.242         0.246         2.030
  sub72                      164.385       293.107         3.069         0.210         1.476
  1                          349.075       671.606         7.102         0.495         3.297
  2                           42.749        75.577         1.214         0.073         0.518
  ------------------------------------------------------------------------------------------
  System                    4570.974      8595.115        88.408         6.057        41.983
  
  
  ******************
  Node Depth Summary
  ******************
  
  ---------------------------------------------------------------------------------
                                 Average  Maximum  Maximum  Time of Max    Reported
                                   Depth    Depth      HGL   Occurrence   Max Depth
  Node                 Type       Meters   Meters   Meters  days hr:min      Meters
  ---------------------------------------------------------------------------------
  WS02001211           JUNCTION     0.77     0.85     5.69     0  03:07        0.85
  WS02001212           JUNCTION     0.48     0.58     5.64     0  03:06        0.58
  WS02001213           JUNCTION     0.72     0.85     5.62     0  03:06        0.85
  WS02003069           JUNCTION     0.52     0.72     5.30     0  03:05        0.72
  WS02003072           JUNCTION     0.58     0.76     5.13     0  03:06        0.76
  WS02003073           JUNCTION     0.36     0.48     4.54     0  03:06        0.48
  WS02003060           JUNCTION     0.46     0.63     5.57     0  03:05        0.63
  WS02003066           JUNCTION     0.25     0.39     5.94     0  03:04        0.39
  WS02003059           JUNCTION     0.77     0.91     5.60     0  03:05        0.91
  WS02003067           JUNCTION     0.61     0.82     6.14     0  03:04        0.82
  WS02004401           JUNCTION     0.74     1.23     7.23     0  03:00        1.23
  WS02004402           JUNCTION     0.77     1.22     7.18     0  03:01        1.22
  WS02004403           JUNCTION     0.79     1.20     7.13     0  03:01        1.19
  WS02004404           JUNCTION     0.86     1.24     7.09     0  03:01        1.24
  WS02004406           JUNCTION     0.86     1.16     6.99     0  03:01        1.16
  WS02004409           JUNCTION     0.55     0.96     6.73     0  03:03        0.96
  WS02004410           JUNCTION     0.57     0.95     6.67     0  03:03        0.95
  WS02004411           JUNCTION     0.58     0.93     6.61     0  03:03        0.93
  WS02004412           JUNCTION     0.59     0.90     6.54     0  03:04        0.90
  WS02004413           JUNCTION     0.75     1.02     6.49     0  03:04        1.02
  WS02004405           JUNCTION     0.85     1.22     7.07     0  03:01        1.21
  WS02006109           JUNCTION     0.84     1.65     8.27     0  03:02        1.64
  WS02006110           JUNCTION     0.81     1.44     8.03     0  03:02        1.44
  WS02006111           JUNCTION     0.26     0.88     7.59     0  03:02        0.88
  WS02006112           JUNCTION     0.92     1.55     7.44     0  03:02        1.55
  WS02006113           JUNCTION     0.38     0.92     7.81     0  03:02        0.92
  WS02006115           JUNCTION     0.64     1.21     7.35     0  03:02        1.21
  WS02006116           JUNCTION     0.72     1.26     7.30     0  03:02        1.26
  WS02006230           JUNCTION     0.86     1.87     8.62     0  03:02        1.87
  WS02006231           JUNCTION     0.61     1.51     8.64     0  03:02        1.51
  WS02006232           JUNCTION     0.76     1.62     8.66     0  03:02        1.61
  WS02006234           JUNCTION     0.70     1.52     8.68     0  03:02        1.52
  WS02006235           JUNCTION     0.75     1.53     8.69     0  03:02        1.52
  WS02006238           JUNCTION     0.78     1.55     8.69     0  03:02        1.54
  WS02006240           JUNCTION     0.69     1.40     8.69     0  03:02        1.40
  WS02006242           JUNCTION     0.74     1.42     8.69     0  03:01        1.42
  WS02006243           JUNCTION     0.63     1.27     8.69     0  03:00        1.27
  WS02006245           JUNCTION     0.61     1.21     8.69     0  03:01        1.20
  WS02006247           JUNCTION     0.62     1.20     8.70     0  02:59        1.19
  WS02006248           JUNCTION     0.56     1.10     8.69     0  02:58        1.10
  WS02006249           JUNCTION     0.58     1.09     8.69     0  02:55        1.09
  WS02006239           JUNCTION     0.74     1.48     8.69     0  03:02        1.48
  WS02006251           JUNCTION     0.56     1.24     8.91     0  07:10        1.23
  WS02006252           JUNCTION     0.34     0.80     9.04     0  07:10        0.79
  WS02006253           JUNCTION     0.59     1.30     8.94     0  02:55        1.28
  WS02006256           JUNCTION     1.76     2.35     9.28     0  00:00        2.35
  WS02004138           JUNCTION     0.19     0.20     7.45     0  00:00        0.19
  WS02004139           JUNCTION     0.72     0.79     5.70     0  03:07        0.79
  WS02004407           JUNCTION     0.24     0.40     6.71     0  03:03        0.40
  WS02006228           JUNCTION     0.86     1.82     8.47     0  03:02        1.82
  WS02006229           JUNCTION     0.84     1.90     8.59     0  03:02        1.89
  WS02006280           JUNCTION     0.07     0.30     8.57     0  03:05        0.30
  WS02006284           JUNCTION     0.37     0.65     9.04     0  03:02        0.64
  WS02006287           JUNCTION     0.10     0.39     9.34     0  03:02        0.39
  WSF200               JUNCTION     0.25     0.44     5.67     0  03:04        0.44
  HS02004901           JUNCTION     0.13     0.38    10.20     0  03:01        0.37
  HS02004881           JUNCTION     0.01     0.05     9.08     0  03:01        0.05
  HS02004876           JUNCTION     0.04     0.16     9.19     0  03:01        0.16
  HS02004870           JUNCTION     0.02     0.09     9.38     0  03:01        0.09
  HS02004862           JUNCTION     0.02     0.11     9.49     0  03:01        0.11
  HS02004856           JUNCTION     0.08     0.15     9.58     0  03:01        0.15
  HS02004852           JUNCTION     0.01     0.07     9.59     0  03:02        0.07
  HS02004848           JUNCTION     0.01     0.07     9.67     0  03:01        0.07
  HS02004842           JUNCTION     0.33     0.40     9.67     0  03:01        0.40
  HS02004837           JUNCTION     0.03     0.09     9.67     0  03:01        0.09
  HS02004830           JUNCTION     0.04     0.10     9.57     0  03:01        0.10
  HS02004824           JUNCTION     0.03     0.13     9.53     0  03:02        0.13
  HS02004817           JUNCTION     0.44     0.69     9.54     0  03:02        0.69
  HS02004807           JUNCTION     0.13     0.36     9.53     0  03:02        0.36
  HS02004802           JUNCTION     0.17     0.39     9.52     0  03:02        0.39
  HS02004799           JUNCTION     0.12     0.46     9.68     0  03:01        0.46
  HS02004792           JUNCTION     0.04     0.22     9.74     0  03:01        0.21
  HS02004788           JUNCTION     0.03     0.16    10.05     0  03:02        0.16
  HS02004785           JUNCTION     0.05     0.25    10.15     0  03:02        0.25
  HS02004777           JUNCTION     0.15     0.39    10.19     0  03:01        0.39
  HS02004770           JUNCTION     0.12     0.37    10.20     0  03:01        0.36
  HS02004480           JUNCTION     0.08     0.38     9.62     0  03:01        0.38
  HS02004479           JUNCTION     0.12     0.42     9.62     0  03:01        0.42
  HS02004478           JUNCTION     0.06     0.28     9.50     0  03:01        0.28
  YS02001745           JUNCTION     0.73     0.95     8.47     0  03:01        0.95
  YS02001748           JUNCTION     1.12     1.53     8.61     0  02:36        1.38
  YS02001751           JUNCTION     1.31     1.58     8.46     0  03:00        1.56
  YS02001754           JUNCTION     1.56     1.84     8.45     0  03:00        1.83
  YS02001762           JUNCTION     1.76     2.04     8.44     0  03:00        2.03
  YS02001765           JUNCTION     1.71     1.99     8.44     0  02:58        1.98
  YS02001767           JUNCTION     1.67     1.95     8.43     0  03:00        1.94
  YS02001770           JUNCTION     1.67     1.93     8.43     0  03:00        1.92
  YS02001774           JUNCTION     1.74     1.99     8.41     0  02:58        1.98
  YS02001779           JUNCTION     1.48     1.68     8.37     0  02:40        1.68
  YS02001882           JUNCTION     0.57     1.64     8.35     0  03:00        1.63
  YS02001884           JUNCTION     0.67     1.74     8.35     0  03:00        1.72
  YS02001759           JUNCTION     1.79     2.09     8.45     0  03:00        2.08
  YS02001887           JUNCTION     0.74     1.81     8.35     0  03:00        1.80
  YS02001890           JUNCTION     0.77     1.81     8.32     0  02:48        1.81
  YS02001898           JUNCTION     0.54     1.56     8.30     0  02:49        1.56
  YS02001901           JUNCTION     0.66     1.68     8.29     0  02:56        1.67
  YS02001904           JUNCTION     0.64     1.64     8.27     0  02:55        1.63
  YS02001907           JUNCTION     0.97     1.96     8.25     0  02:48        1.96
  YS02001910           JUNCTION     0.76     1.78     8.29     0  02:50        1.78
  YS02001915           JUNCTION     0.56     1.60     8.32     0  02:50        1.60
  YS02001918           JUNCTION     0.30     1.30     8.37     0  02:49        1.29
  YS02001619           JUNCTION     1.27     1.51     8.44     0  02:35        1.48
  YS02001629           JUNCTION     1.62     1.85     8.40     0  02:35        1.84
  YS02001641           JUNCTION     1.72     1.94     8.37     0  06:41        1.93
  YS02001644           JUNCTION     1.72     1.92     8.35     0  02:39        1.92
  YS02001652           JUNCTION     1.57     2.16     8.76     0  03:57        1.91
  YS02001655           JUNCTION     1.33     2.14     8.99     0  03:57        1.72
  YS02001920           JUNCTION     0.40     1.38     8.39     0  02:50        1.38
  YS02001923           JUNCTION     0.23     1.15     8.41     0  02:50        1.15
  YS02001926           JUNCTION     0.29     0.95     8.40     0  02:50        0.94
  YS02001929           JUNCTION     0.17     0.71     8.40     0  02:50        0.70
  YS02001658           JUNCTION     1.06     2.08     9.23     0  03:57        1.46
  YS02001661           JUNCTION     0.83     2.23     9.63     0  03:57        1.20
  YS02001664           JUNCTION     0.37     0.57     8.50     0  04:49        0.56
  YS02001622           JUNCTION     1.29     1.53     8.43     0  02:35        1.50
  YS02001633           JUNCTION     1.71     1.95     8.40     0  03:00        1.94
  YS02001649           JUNCTION     1.76     2.05     8.44     0  02:42        2.05
  YS02001757           JUNCTION     1.89     2.18     8.44     0  03:00        2.16
  YS02001895           JUNCTION     0.54     1.57     8.31     0  02:52        1.56
  YS02001625           JUNCTION     1.57     1.78     8.38     0  02:32        1.78
  YS02163301           JUNCTION     1.65     1.88     8.40     0  02:39        1.87
  YS02163601           JUNCTION     1.76     1.99     8.39     0  02:39        1.99
  YS02164001           JUNCTION     1.70     1.92     8.38     0  02:39        1.91
  YS02001647           JUNCTION     1.55     1.81     8.42     0  02:42        1.79
  YSB1154              JUNCTION     0.26     0.57     9.62     0  03:01        0.57
  YSB6556              JUNCTION     0.15     0.45     9.62     0  03:02        0.45
  YSB1174              JUNCTION     0.21     0.52     9.62     0  03:01        0.51
  YSB1171              JUNCTION     0.41     0.72     9.62     0  03:01        0.72
  YS02006553           JUNCTION     0.97     1.97     8.25     0  02:59        1.96
  YS02006561           JUNCTION     0.32     1.07     7.73     0  02:59        1.07
  YS02006556           JUNCTION     0.93     1.93     8.24     0  02:58        1.93
  YS02006558           JUNCTION     0.98     1.98     8.24     0  02:59        1.97
  YS02001783           JUNCTION     0.56     1.72     7.86     0  02:26        1.45
  YS02001784           JUNCTION     0.57     1.94     8.01     0  02:26        1.39
  YS02001786           JUNCTION     0.51     1.94     7.97     0  02:26        1.23
  YS02001788           JUNCTION     0.44     2.02     7.99     0  02:26        1.09
  YS02001790           JUNCTION     0.58     1.96     7.60     0  02:26        1.25
  YS02001791           JUNCTION     0.54     1.67     7.14     0  02:26        1.22
  YS02001793           JUNCTION     0.77     2.00     6.84     0  02:26        1.79
  WSC                  OUTFALL      0.36     0.48     1.15     0  03:07        0.48
  JK-storage           STORAGE      3.09     5.80     6.60     0  02:25        5.80
  CC-storage           STORAGE      1.15     1.42     8.42     0  03:12        1.42
  XR-storage           STORAGE      6.61     7.72     5.72     0  02:59        7.72
  
  
  *******************
  Node Inflow Summary
  *******************
  
  -------------------------------------------------------------------------------------------------
                                  Maximum  Maximum                  Lateral       Total        Flow
                                  Lateral    Total  Time of Max      Inflow      Inflow     Balance
                                   Inflow   Inflow   Occurrence      Volume      Volume       Error
  Node                 Type           LPS      LPS  days hr:min    10^6 ltr    10^6 ltr     Percent
  -------------------------------------------------------------------------------------------------
  WS02001211           JUNCTION      7.35   390.29     0  03:16       0.207        10.1       0.411
  WS02001212           JUNCTION      0.00   393.23     0  03:16           0          10       0.252
  WS02001213           JUNCTION      0.00   395.75     0  03:16           0          10       0.301
  WS02003069           JUNCTION      0.32  1333.42     0  03:05     0.00902        20.4       0.199
  WS02003072           JUNCTION      0.00  1333.08     0  03:06           0        20.4       0.232
  WS02003073           JUNCTION      1.82  1334.94     0  03:06      0.0514        20.4       0.273
  WS02003060           JUNCTION     16.53  1333.35     0  03:05       0.466        20.4       0.186
  WS02003066           JUNCTION      0.00   938.65     0  03:04           0          10       0.056
  WS02003059           JUNCTION      0.00   398.68     0  03:15           0        9.99       0.424
  WS02003067           JUNCTION      0.00   938.20     0  03:04           0          10       0.110
  WS02004401           JUNCTION      0.00   938.93     0  03:03           0        10.3       0.245
  WS02004402           JUNCTION      0.00   939.00     0  03:03           0        10.3       0.227
  WS02004403           JUNCTION      0.00   939.06     0  03:03           0        10.3       0.202
  WS02004404           JUNCTION      0.16   939.27     0  03:03     0.00457        10.3       0.147
  WS02004406           JUNCTION      0.00   939.44     0  03:03           0        10.2       0.362
  WS02004409           JUNCTION      0.00   939.37     0  03:03           0        10.2       0.215
  WS02004410           JUNCTION      0.00   938.55     0  03:03           0        10.2       0.237
  WS02004411           JUNCTION      0.00   938.16     0  03:03           0        10.1       0.238
  WS02004412           JUNCTION      0.00   937.79     0  03:04           0        10.1       0.249
  WS02004413           JUNCTION      0.00   938.01     0  03:04           0        10.1       0.355
  WS02004405           JUNCTION      0.04   939.37     0  03:03     0.00107        10.2       0.220
  WS02006109           JUNCTION      1.23   914.51     0  03:02      0.0347        10.4       0.201
  WS02006110           JUNCTION      0.00   914.56     0  03:02           0        10.4       0.209
  WS02006111           JUNCTION      0.00   915.01     0  03:03           0        10.3       0.052
  WS02006112           JUNCTION     30.67   938.55     0  03:02      0.0853        10.4       0.324
  WS02006113           JUNCTION      0.00   914.62     0  03:02           0        10.3       0.123
  WS02006115           JUNCTION      0.00   938.64     0  03:02           0        10.4       0.247
  WS02006116           JUNCTION      0.00   938.82     0  03:02           0        10.3       0.214
  WS02006230           JUNCTION     10.28   534.42     0  07:10        0.29        7.97       0.224
  WS02006231           JUNCTION      0.00   524.05     0  07:10           0        7.69       0.177
  WS02006232           JUNCTION      0.00   523.83     0  07:10           0        7.71       0.240
  WS02006234           JUNCTION      0.00   523.81     0  07:10           0        7.72       0.146
  WS02006235           JUNCTION      0.00   524.25     0  07:10           0        7.78       0.156
  WS02006238           JUNCTION      0.00   349.71     0  04:40           0        4.31       0.212
  WS02006240           JUNCTION      0.00   356.31     0  06:41           0        4.29       0.404
  WS02006242           JUNCTION      0.00   361.01     0  06:41           0        4.29       0.445
  WS02006243           JUNCTION      0.00   372.03     0  05:11           0        4.28       0.187
  WS02006245           JUNCTION      0.00   378.95     0  05:11           0        4.29       0.392
  WS02006247           JUNCTION      0.00   384.07     0  05:11           0        4.29       0.242
  WS02006248           JUNCTION      0.00   389.18     0  05:11           0         4.3       0.152
  WS02006249           JUNCTION      0.00   437.20     0  03:20           0        4.84       0.295
  WS02006239           JUNCTION      0.00   351.07     0  06:41           0        4.29       0.174
  WS02006251           JUNCTION      0.08   436.18     0  03:20     0.00217        4.89       0.223
  WS02006252           JUNCTION      0.00   400.00     0  03:40           0        4.38       0.010
  WS02006253           JUNCTION      3.75   143.71     0  03:01      0.0103       0.514       1.074
  WS02006256           JUNCTION      0.00   983.00     0  02:40           0        10.5      -0.006
  WS02004138           JUNCTION      0.00   380.00     0  00:00           0        9.92       0.064
  WS02004139           JUNCTION      0.32   395.85     0  00:00     0.00905        9.92       0.468
  WS02004407           JUNCTION      0.00   939.51     0  03:03           0        10.2       0.095
  WS02006228           JUNCTION      0.00   913.20     0  03:02           0        10.4       0.162
  WS02006229           JUNCTION      0.00   918.31     0  03:01           0        10.4       0.148
  WS02006280           JUNCTION      0.00   680.08     0  03:02           0        2.43       0.012
  WS02006284           JUNCTION      0.10   678.94     0  03:02      0.0027        2.43       0.044
  WS02006287           JUNCTION      0.00   677.58     0  03:02           0        2.43       0.033
  WSF200               JUNCTION      0.00   938.78     0  03:04           0          10       0.059
  HS02004901           JUNCTION     37.63    37.63     0  03:01       0.103       0.103       1.744
  HS02004881           JUNCTION     14.26   140.54     0  03:01      0.0422       0.463       0.102
  HS02004876           JUNCTION     25.66   127.63     0  03:01      0.0814       0.422       0.129
  HS02004870           JUNCTION     26.26   103.59     0  03:01      0.0799        0.34       0.036
  HS02004862           JUNCTION     25.49    79.37     0  03:01      0.0888       0.261       0.067
  HS02004856           JUNCTION     19.64    55.41     0  03:01      0.0601       0.173       0.846
  HS02004852           JUNCTION      0.00    37.84     0  03:01           0       0.113       0.053
  HS02004848           JUNCTION     55.75    55.75     0  03:01       0.197       0.197       0.030
  HS02004842           JUNCTION      0.00    16.84     0  03:01           0       0.097      15.491
  HS02004837           JUNCTION     50.35    65.69     0  03:01       0.318       0.402       0.205
  HS02004830           JUNCTION      0.15    64.79     0  03:01     0.00423       0.392       0.316
  HS02004824           JUNCTION     65.57   128.43     0  03:01       0.251       0.642       0.086
  HS02004817           JUNCTION      0.60   124.46     0  03:01      0.0169       0.658       2.600
  HS02004807           JUNCTION     48.45   165.77     0  03:01       0.147       0.788       0.555
  HS02004802           JUNCTION      0.00   165.32     0  03:04           0       0.785       0.508
  HS02004799           JUNCTION     38.67   446.03     0  03:01       0.119        1.42       0.191
  HS02004792           JUNCTION    184.82   411.72     0  03:01        0.54         1.3       0.034
  HS02004788           JUNCTION     58.68   233.43     0  03:01       0.219       0.758       0.053
  HS02004785           JUNCTION      0.15   182.19     0  03:01     0.00423        0.54       0.093
  HS02004777           JUNCTION      0.03   185.01     0  03:01    0.000846       0.541       0.972
  HS02004770           JUNCTION    154.22   188.93     0  03:01       0.441       0.542       0.579
  HS02004480           JUNCTION      0.00   517.17     0  03:01           0        1.66       0.067
  HS02004479           JUNCTION      0.00    75.43     0  03:02           0       0.258       0.287
  HS02004478           JUNCTION      0.00   676.98     0  03:02           0        2.43       0.010
  YS02001745           JUNCTION    438.14   438.14     0  03:01        3.01        3.02       0.332
  YS02001748           JUNCTION      0.04   471.27     0  02:33     0.00127        3.01       0.741
  YS02001751           JUNCTION      0.01   443.02     0  03:01     0.00031        2.98       0.781
  YS02001754           JUNCTION      0.26   443.07     0  03:01     0.00733        2.96       0.845
  YS02001762           JUNCTION      0.00   316.90     0  02:43           0        1.93       1.117
  YS02001765           JUNCTION      0.00   316.77     0  02:43           0        1.94       1.272
  YS02001767           JUNCTION      0.54   316.23     0  02:43      0.0151        1.96       1.871
  YS02001770           JUNCTION    552.50   673.47     0  03:02        3.37        3.76       0.855
  YS02001774           JUNCTION      0.00   674.24     0  03:02           0        2.17       1.179
  YS02001779           JUNCTION      0.01   674.63     0  03:02    0.000141        2.14       0.732
  YS02001882           JUNCTION      0.00    20.88     0  04:10           0      0.0225      11.948
  YS02001884           JUNCTION      0.00    26.10     0  04:10           0       0.061      11.905
  YS02001759           JUNCTION    536.49   622.58     0  02:43        3.11        4.62       0.497
  YS02001887           JUNCTION    679.97   679.97     0  03:01        3.56         3.6       0.248
  YS02001890           JUNCTION      0.00   681.03     0  03:01           0        3.55       0.270
  YS02001898           JUNCTION      0.00   517.91     0  02:58           0        3.45       0.105
  YS02001901           JUNCTION      0.00   518.08     0  02:59           0        3.44       0.210
  YS02001904           JUNCTION      0.00   517.55     0  02:59           0        3.44       0.195
  YS02001907           JUNCTION      0.00  1097.42     0  03:02           0        7.77       0.319
  YS02001910           JUNCTION      0.00   580.82     0  03:02           0        4.34       0.287
  YS02001915           JUNCTION    389.26   580.36     0  03:02        2.52        4.35       0.150
  YS02001918           JUNCTION      0.00   265.46     0  02:50           0        1.84       0.114
  YS02001619           JUNCTION    380.66   380.66     0  03:01        2.51        2.51       0.487
  YS02001629           JUNCTION      0.00   196.67     0  02:39           0        1.59       1.846
  YS02001641           JUNCTION      0.00   413.45     0  02:39           0        4.46       0.476
  YS02001644           JUNCTION    416.76  1527.44     0  03:01         2.9        10.8       0.245
  YS02001652           JUNCTION      0.00   501.18     0  03:01           0        2.63       0.885
  YS02001655           JUNCTION      0.15   500.93     0  03:01     0.00434        2.65       0.955
  YS02001920           JUNCTION      2.87   265.75     0  02:50      0.0809        1.84       0.174
  YS02001923           JUNCTION      0.04   229.70     0  02:50     0.00106        1.76       0.056
  YS02001926           JUNCTION      0.05   201.95     0  02:50     0.00147        1.75       0.189
  YS02001929           JUNCTION    189.18   189.18     0  03:01        1.75        1.75       0.035
  YS02001658           JUNCTION      0.00   507.96     0  02:31           0        2.67       0.873
  YS02001661           JUNCTION      0.00   670.90     0  02:42           0        3.04      -0.150
  YS02001664           JUNCTION    492.63   492.63     0  03:01        2.67        3.04       0.169
  YS02001622           JUNCTION      0.00   381.01     0  03:01           0         2.5       1.287
  YS02001633           JUNCTION    423.29   423.29     0  03:01        2.99        4.52       0.717
  YS02001649           JUNCTION      0.00   875.94     0  02:40           0         6.1       0.612
  YS02001757           JUNCTION      0.00  1680.86     0  02:40           0        9.73       0.953
  YS02001895           JUNCTION      0.00   517.92     0  02:59           0        3.45       0.154
  YS02001625           JUNCTION      0.00   407.73     0  03:01           0        2.47       1.594
  YS02163301           JUNCTION      0.00   204.56     0  02:33           0        1.57       1.569
  YS02163601           JUNCTION      0.11   413.36     0  02:39      0.0031        4.48       0.680
  YS02164001           JUNCTION      0.00   413.05     0  02:39           0        4.46       0.459
  YS02001647           JUNCTION      0.00   728.62     0  03:10           0        5.25       0.541
  YSB1154              JUNCTION     44.76    44.76     0  03:01       0.144       0.144       1.019
  YSB6556              JUNCTION      0.00    43.28     0  03:01           0       0.145       0.869
  YSB1174              JUNCTION     38.10    38.10     0  03:01       0.106       0.107       1.223
  YSB1171              JUNCTION      0.00    76.93     0  03:01           0       0.257       2.526
  YS02006553           JUNCTION      0.00   707.69     0  03:45           0        6.75       0.233
  YS02006561           JUNCTION      0.00  1044.80     0  02:49           0        9.97       0.007
  YS02006556           JUNCTION      0.00   707.24     0  03:46           0        6.75       0.173
  YS02006558           JUNCTION    587.14  1045.97     0  02:49        3.28          10       0.054
  YS02001783           JUNCTION      0.00  1045.05     0  02:49           0        9.97       0.026
  YS02001784           JUNCTION      1.06  1045.30     0  02:49      0.0299          10       0.038
  YS02001786           JUNCTION      0.06  1045.08     0  02:49     0.00159          10       0.037
  YS02001788           JUNCTION      0.07  1044.83     0  02:49       0.002        9.99       0.023
  YS02001790           JUNCTION      0.15  1044.76     0  02:49     0.00437          10       0.020
  YS02001791           JUNCTION      0.00  1044.92     0  02:49           0        9.99       0.011
  YS02001793           JUNCTION      0.00  1045.10     0  02:49           0          10      -0.023
  WSC                  OUTFALL       0.00  1335.08     0  03:07           0        20.3       0.000
  JK-storage           STORAGE       0.00  1059.35     0  02:20           0        10.2      -9.976
  CC-storage           STORAGE       0.00  1681.72     0  02:40           0        7.89       0.786
  XR-storage           STORAGE    1024.87  1024.87     0  03:01        12.7        13.3      -0.004
  
  
  **********************
  Node Surcharge Summary
  **********************
  
  Surcharging occurs when water rises above the top of the highest conduit.
  ---------------------------------------------------------------------
                                               Max. Height   Min. Depth
                                   Hours       Above Crown    Below Rim
  Node                 Type      Surcharged         Meters       Meters
  ---------------------------------------------------------------------
  WS02004401           JUNCTION        0.56          0.230        1.430
  WS02004402           JUNCTION        0.63          0.222        1.518
  WS02004403           JUNCTION        0.64          0.196        1.834
  WS02004404           JUNCTION        1.11          0.240        2.540
  WS02004406           JUNCTION        0.86          0.162        2.288
  WS02004413           JUNCTION        0.19          0.023        2.177
  WS02004405           JUNCTION        0.91          0.215        2.585
  WS02006109           JUNCTION        4.20          0.828        0.992
  WS02006110           JUNCTION        2.72          0.533        1.317
  WS02006111           JUNCTION        0.13          0.073        1.797
  WS02006112           JUNCTION        3.09          0.552        1.128
  WS02006113           JUNCTION        0.16          0.121        1.809
  WS02006115           JUNCTION        0.37          0.204        2.046
  WS02006116           JUNCTION        0.40          0.196        2.094
  WS02006230           JUNCTION        2.32          0.792        0.778
  WS02006231           JUNCTION        2.69          0.805        0.725
  WS02006232           JUNCTION        4.05          0.917        0.563
  WS02006234           JUNCTION        3.63          0.800        0.440
  WS02006235           JUNCTION        3.76          0.818        0.472
  WS02006238           JUNCTION        3.81          0.828        0.602
  WS02006240           JUNCTION        3.41          0.687        0.703
  WS02006242           JUNCTION        3.46          0.691        0.129
  WS02006243           JUNCTION        2.74          0.561        0.209
  WS02006245           JUNCTION        2.48          0.499        0.351
  WS02006247           JUNCTION        2.49          0.488        0.272
  WS02006248           JUNCTION        2.32          0.380        0.000
  WS02006249           JUNCTION        2.35          0.390        0.000
  WS02006239           JUNCTION        3.54          0.742        0.548
  WS02006251           JUNCTION        1.72          0.211        0.969
  WS02006252           JUNCTION        2.61          0.400        0.700
  WS02006253           JUNCTION        1.75          0.255        2.225
  WS02006256           JUNCTION        6.84          2.050        0.000
  WS02006228           JUNCTION        4.19          0.992        1.208
  YS02001748           JUNCTION        5.22          0.452        0.738
  YS02001751           JUNCTION        5.38          0.579        0.621
  YS02001754           JUNCTION        5.58          0.788        0.362
  YS02001762           JUNCTION        5.75          1.044        0.106
  YS02001765           JUNCTION        5.72          0.990        0.110
  YS02001767           JUNCTION        5.69          0.946        0.084
  YS02001770           JUNCTION        5.68          0.903        0.017
  YS02001774           JUNCTION        5.74          0.986        0.064
  YS02001779           JUNCTION        5.56          0.680        0.000
  YS02001882           JUNCTION        1.11          0.637        0.193
  YS02001884           JUNCTION        1.14          0.678        0.192
  YS02001759           JUNCTION        5.78          1.085        0.125
  YS02001887           JUNCTION        1.21          0.761        0.189
  YS02001890           JUNCTION        1.24          0.760        0.000
  YS02001898           JUNCTION        1.05          0.531        0.209
  YS02001901           JUNCTION        1.18          0.677        0.193
  YS02001904           JUNCTION        1.15          0.636        0.214
  YS02001907           JUNCTION        1.89          0.950        0.000
  YS02001910           JUNCTION        1.28          0.785        0.315
  YS02001915           JUNCTION        1.08          0.602        0.398
  YS02001918           JUNCTION        0.87          0.302        0.508
  YS02001619           JUNCTION        5.38          0.515        0.095
  YS02001629           JUNCTION        5.39          0.470        0.000
  YS02001641           JUNCTION        5.73          0.936        0.164
  YS02001644           JUNCTION        5.73          0.920        0.000
  YS02001652           JUNCTION        5.61          1.130        0.000
  YS02001655           JUNCTION        5.41          1.144        0.056
  YS02001920           JUNCTION        0.91          0.383        0.757
  YS02001658           JUNCTION        5.24          1.085        0.215
  YS02001661           JUNCTION        0.18          1.159        0.231
  YS02001622           JUNCTION        5.41          0.525        0.095
  YS02001633           JUNCTION        5.71          0.928        0.132
  YS02001649           JUNCTION        5.75          1.050        0.000
  YS02001757           JUNCTION        5.86          1.176        0.034
  YS02001895           JUNCTION        1.07          0.567        0.183
  YS02001625           JUNCTION        5.64          0.780        0.000
  YS02163301           JUNCTION        5.68          0.883        0.147
  YS02163601           JUNCTION        5.75          0.989        0.091
  YS02164001           JUNCTION        5.72          0.922        0.178
  YS02001647           JUNCTION        5.62          0.805        0.095
  YS02006553           JUNCTION        1.97          0.971        0.219
  YS02006561           JUNCTION        0.90          0.271        0.879
  YS02006556           JUNCTION        1.51          0.893        0.457
  YS02006558           JUNCTION        1.46          0.875        0.525
  YS02001783           JUNCTION        1.43          0.920        0.680
  YS02001784           JUNCTION        1.41          1.144        0.346
  YS02001786           JUNCTION        1.33          1.140        0.290
  YS02001788           JUNCTION        1.16          1.217        0.263
  YS02001790           JUNCTION        2.27          1.157        0.000
  YS02001791           JUNCTION        2.37          0.873        1.047
  YS02001793           JUNCTION        2.66          1.004        1.596
  
  
  *********************
  Node Flooding Summary
  *********************
  
  Flooding refers to all water that overflows a node, whether it ponds or not.
  --------------------------------------------------------------------------
                                                             Total   Maximum
                                 Maximum   Time of Max       Flood    Ponded
                        Hours       Rate    Occurrence      Volume     Depth
  Node                 Flooded       LPS   days hr:min    10^6 ltr    Meters
  --------------------------------------------------------------------------
  WS02006248              0.08     14.88      0  03:03       0.002     0.000
  WS02006249              1.65    258.97      0  03:02       0.525     0.000
  WS02006256              4.39    830.89      0  03:02       7.021     0.000
  YS02001779              2.80    674.60      0  03:02       2.121     0.000
  YS02001890              0.34    165.26      0  03:01       0.085     0.000
  YS02001907              0.75    687.50      0  03:01       1.006     0.000
  YS02001629              0.01      4.43      0  02:35       0.000     0.000
  YS02001644              4.43   1526.32      0  03:01       8.987     0.000
  YS02001652              0.01      7.59      0  03:57       0.000     0.000
  YS02001649              0.03     32.59      0  03:57       0.001     0.000
  YS02001625              1.41    407.68      0  03:01       0.854     0.000
  YS02001790              0.01     27.13      0  02:26       0.000     0.000
  JK-storage              0.86    437.44      0  04:55       0.722     0.000
  XR-storage              3.46    644.77      0  03:01       2.614     0.000
  
  
  **********************
  Storage Volume Summary
  **********************
  
  --------------------------------------------------------------------------------------------------
                         Average     Avg  Evap Exfil       Maximum     Max    Time of Max    Maximum
                          Volume    Pcnt  Pcnt  Pcnt        Volume    Pcnt     Occurrence    Outflow
  Storage Unit           1000 m3    Full  Loss  Loss       1000 m3    Full    days hr:min        LPS
  --------------------------------------------------------------------------------------------------
  JK-storage               0.155      53     0     0         0.291     100       0  02:25     983.00
  CC-storage               3.191      20     0     0         3.961      25       0  03:12     400.00
  XR-storage               0.793      86     0     0         0.926     100       0  02:59     380.00
  
  
  ***********************
  Outfall Loading Summary
  ***********************
  
  ---------------------------------------------------------------------------------------------------------------------------------
                         Flow       Avg       Max       Total         Total         Total         Total         Total         Total
                         Freq      Flow      Flow      Volume           COD            SS            TN            TP         NH4-N
  Outfall Node           Pcnt       LPS       LPS    10^6 ltr            kg            kg            kg            kg            kg
  ---------------------------------------------------------------------------------------------------------------------------------
  WSC                   99.98    801.12   1335.08      20.314      2434.466      4216.763       150.173        17.553        90.570
  ---------------------------------------------------------------------------------------------------------------------------------
  System                99.98    801.12   1335.08      20.314      2434.466      4216.763       150.173        17.553        90.570
  
  
  ********************
  Link Flow Summary
  ********************
  
  -----------------------------------------------------------------------------
                                 Maximum  Time of Max   Maximum    Max/    Max/
                                  |Flow|   Occurrence   |Veloc|    Full    Full
  Link                 Type          LPS  days hr:min     m/sec    Flow   Depth
  -----------------------------------------------------------------------------
  WS02003066WSF200     CONDUIT    938.78     0  03:04      3.00    0.16    0.32
  WS02006287WS02006284 CONDUIT    678.85     0  03:02      2.38    0.31    0.39
  WS02006284WS02006280 CONDUIT    680.08     0  03:02      2.62    0.28    0.37
  WS02006280WS02006229 CONDUIT    680.15     0  03:02      3.85    0.15    0.50
  WS02006229WS02006228 CONDUIT    913.20     0  03:02      1.82    3.02    1.00
  WS02006256WS02006235 CONDUIT    288.92     0  00:00      4.23    3.06    1.00
  WS02006253WS02006251 CONDUIT    143.92     0  03:01      0.50    0.43    1.00
  WS02006252WS02006251 CONDUIT    404.72     0  07:10      3.22    1.49    1.00
  WS02006251WS02006249 CONDUIT    437.20     0  03:20      1.14    1.26    1.00
  WS02006249WS02006248 CONDUIT    389.18     0  05:11      1.14    2.13    1.00
  WS02006248WS02006247 CONDUIT    384.07     0  05:11      1.11    0.84    1.00
  WS02006247WS02006245 CONDUIT    378.95     0  05:11      1.08    3.00    1.00
  WS02006245WS02006243 CONDUIT    372.03     0  05:11      1.10    1.10    1.00
  WS02006243WS02006242 CONDUIT    361.01     0  06:41      1.01    0.77    1.00
  WS02006242WS02006240 CONDUIT    356.31     0  06:41      0.97    1.42    1.00
  WS02006240WS02006239 CONDUIT    351.07     0  06:41      1.00    1.10    1.00
  WS02006239WS02006238 CONDUIT    349.71     0  04:40      0.95    1.12    1.00
  WS02006238WS02006235 CONDUIT    350.76     0  04:40      1.45    0.78    1.00
  WS02006235WS02006234 CONDUIT    523.81     0  07:10      1.36    5.53    1.00
  WS02006234WS02006232 CONDUIT    523.83     0  07:10      1.39    1.06    1.00
  WS02006232WS02006231 CONDUIT    524.05     0  07:10      1.36    1.10    1.00
  WS02006231WS02006230 CONDUIT    524.14     0  07:10      1.42    7.95    1.00
  WS02006230WS02006229 CONDUIT    535.27     0  07:10      1.39   11.91    1.00
  WS02006228WS02006109 CONDUIT    913.28     0  03:02      1.82    3.99    1.00
  WS02006116WS02004401 CONDUIT    938.93     0  03:03      1.20    1.29    1.00
  WS02006115WS02006116 CONDUIT    938.82     0  03:02      1.20    1.20    1.00
  WS02006113WS02006111 CONDUIT    915.01     0  03:03      2.61    1.10    1.00
  WS02006112WS02006115 CONDUIT    938.64     0  03:02      1.20    0.55    1.00
  WS02006111WS02006112 CONDUIT    915.53     0  03:03      1.82    0.44    1.00
  WS02006110WS02006113 CONDUIT    914.62     0  03:02      1.82    0.83    1.00
  WS02006109WS02006110 CONDUIT    914.56     0  03:02      1.82    1.76    1.00
  WS02004411WS02004412 CONDUIT    937.79     0  03:04      1.24    1.33    0.92
  WS02004401WS02004402 CONDUIT    939.00     0  03:03      1.20    1.13    1.00
  WS02004413WS02003067 CONDUIT    938.20     0  03:04      1.55    0.40    0.72
  WS02004412WS02004413 CONDUIT    938.01     0  03:04      1.22    0.63    0.95
  WS02004410WS02004411 CONDUIT    938.16     0  03:03      1.23    1.28    0.94
  WS02004409WS02004410 CONDUIT    938.55     0  03:03      1.22    1.21    0.95
  WS02004407WS02004409 CONDUIT    939.37     0  03:03      1.67    0.33    0.68
  WS02004406WS02004407 CONDUIT    939.51     0  03:03      1.60    0.42    0.70
  WS02004405WS02004406 CONDUIT    939.44     0  03:03      1.20    1.85    1.00
  WS02004404WS02004405 CONDUIT    939.33     0  03:03      1.20    9.20    1.00
  WS02004403WS02004404 CONDUIT    939.11     0  03:03      1.20    0.68    1.00
  WS02004402WS02004403 CONDUIT    939.06     0  03:03      1.20    1.35    1.00
  WS02004139WS02001211 CONDUIT    382.94     0  03:16      0.90    0.48    0.64
  WS02004138WS02004139 CONDUIT    395.52     0  00:00      3.64    0.08    0.47
  WS02003067WS02003066 CONDUIT    938.65     0  03:04      1.65    0.30    0.50
  WS02001213WS02003059 CONDUIT    398.68     0  03:15      0.89    0.66    0.87
  WS02001212WS02001213 CONDUIT    395.75     0  03:16      1.32    0.61    0.56
  WS02001211WS02001212 CONDUIT    393.23     0  03:16      0.78    0.30    0.71
  WS02003072WS02003073 CONDUIT   1333.12     0  03:06      1.96    2.88    0.58
  WS02003069WS02003072 CONDUIT   1333.08     0  03:06      1.82    0.64    0.62
  WS02003060WS02003069 CONDUIT   1333.10     0  03:05      2.03    0.52    0.56
  WS02003059WS02003060 CONDUIT    402.23     0  03:15      0.95    0.26    0.77
  HS02004901HS02004770 CONDUIT     37.24     0  03:01      0.10    0.14    0.53
  HS02004876HS02004881 CONDUIT    127.62     0  03:01      1.21    1.36    0.15
  HS02004870HS02004876 CONDUIT    103.09     0  03:01      0.82    0.07    0.18
  HS02004842HS02004848 CONDUIT     16.84     0  03:01      0.07    0.01    0.33
  HS02004837HS02004842 CONDUIT     17.91     0  03:03      0.42    0.01    0.35
  HS02004830HS02004837 CONDUIT     64.64     0  03:01      0.67    0.06    0.14
  HS02004824HS02004830 CONDUIT     64.12     0  03:02      0.62    0.08    0.16
  HS02004817HS02004824 CONDUIT    123.86     0  03:01      0.31    0.06    0.58
  HS02004770HS02004777 CONDUIT    184.98     0  03:01      0.49    0.34    0.54
  HS02004799HS02004480 CONDUIT    444.31     0  03:01      1.07    0.56    0.60
  HS02004792HS02004799 CONDUIT    408.42     0  03:01      1.20    0.25    0.49
  HS02004788HS02004792 CONDUIT    232.95     0  03:02      1.28    0.15    0.26
  HS02004785HS02004788 CONDUIT    181.77     0  03:02      0.91    1.37    0.29
  HS02004777HS02004785 CONDUIT    182.04     0  03:01      0.57    0.22    0.45
  HS02004480HS02004478 CONDUIT    517.30     0  03:01      1.55    2.18    0.48
  HS02004479HS02004480 CONDUIT     77.29     0  03:02      0.30    0.07    0.57
  HS02004862HS02004870 CONDUIT     79.02     0  03:01      0.80    0.09    0.14
  HS02004848HS02004852 CONDUIT     37.84     0  03:01      0.53    0.04    0.10
  HS02004856HS02004862 CONDUIT     54.76     0  03:01      0.59    0.05    0.13
  HS02004852HS02004856 CONDUIT     37.76     0  03:02      0.34    0.04    0.16
  HS02004802HS02004478 CONDUIT    170.15     0  03:04      0.54    0.15    0.48
  HS02004478WS02006287 CONDUIT    677.58     0  03:02      2.11    0.19    0.36
  HS02004817HS02004807 CONDUIT    128.11     0  03:04      0.25    0.08    0.75
  HS02004807HS02004802 CONDUIT    165.32     0  03:04      0.46    0.32    0.53
  YS02001759YS02001757 CONDUIT    622.46     0  02:43      0.79    0.44    1.00
  YS02001762YS02001759 CONDUIT    316.06     0  02:43      0.40    0.36    1.00
  YS02001765YS02001762 CONDUIT    316.90     0  02:43      0.40    0.30    1.00
  YS02001770YS02001767 CONDUIT    315.69     0  02:43      0.40    1.25    1.00
  YS02001774YS02001770 CONDUIT    674.24     0  03:02      0.86    0.43    1.00
  YS02001779YS02001774 CONDUIT    674.62     0  03:02      0.86    0.34    1.00
  YS02001649YS02001757 CONDUIT    877.73     0  02:40      1.12    0.53    1.00
  YS02001767YS02001765 CONDUIT    316.77     0  02:43      0.40    0.40    1.00
  YS02006561YS02001783 CONDUIT   1045.05     0  02:49      2.15    0.54    1.00
  YS02001783YS02001784 CONDUIT   1044.24     0  02:49      2.08    1.44    1.00
  YS02001784YS02001785 CONDUIT   1045.03     0  02:49      2.08    2.43    1.00
  YS02001788YS02001790 CONDUIT   1044.61     0  02:49      2.44    0.77    1.00
  YS02001790YS02001791 CONDUIT   1044.92     0  02:49      2.91    1.14    1.00
  YS02001791YS02001793 CONDUIT   1045.10     0  02:49      5.77    0.45    1.00
  YS02001910YS02001907 CONDUIT    581.13     0  03:02      0.74    0.33    1.00
  YS02001786YS02001788 CONDUIT   1044.76     0  02:49      2.31    2.01    1.00
  YS02001915YS02001910 CONDUIT    580.82     0  03:02      0.74    0.29    1.00
  YS02001918YS02001915 CONDUIT    266.20     0  02:50      0.45    0.15    1.00
  YS02001923YS02001920 CONDUIT    262.88     0  02:50      0.76    0.12    1.00
  YS02001926YS02001923 CONDUIT    229.66     0  02:50      0.86    0.33    0.94
  YS02001929YS02001926 CONDUIT    201.90     0  02:50      0.92    0.10    0.83
  YS02001920YS02001918 CONDUIT    265.46     0  02:50      0.72    0.26    1.00
  YS02001629YS02163301 CONDUIT    204.56     0  02:33      0.26    0.25    1.00
  YS02001619YS02001622 CONDUIT    381.01     0  03:01      0.59    0.56    1.00
  YS02001622YS02001625 CONDUIT    381.13     0  03:01      0.49    0.20    1.00
  YS02001625YS02001629 CONDUIT    196.67     0  02:39      0.25    0.09    1.00
  YS02163301YS02001633 CONDUIT    207.00     0  02:33      0.26    0.19    1.00
  YS02163601YS02164001 CONDUIT    413.05     0  02:39      0.53    0.37    1.00
  YS02164001YS02001641 CONDUIT    413.45     0  02:39      0.53    0.56    1.00
  YS02001641YS02001644 CONDUIT    413.48     0  02:39      0.53    1.34    1.00
  YS02001647YS02001649 CONDUIT    728.62     0  03:10      0.93    0.38    1.00
  YS02006553YS02006556 CONDUIT    707.24     0  03:46      0.90    0.61    1.00
  YS02006556YS02006558 CONDUIT    707.92     0  03:45      0.90    0.56    1.00
  YSB6556YSB1171       CONDUIT     42.83     0  03:02      0.13    0.04    0.82
  YS02001907YS02006553 CONDUIT    707.69     0  03:45      0.79    0.83    1.00
  YS02006558YS02006561 CONDUIT   1044.80     0  02:49      3.70    2.31    1.00
  YS02001633YS02163601 CONDUIT    413.25     0  02:39      0.53    0.43    1.00
  YS02001644YS02001647 CONDUIT    728.65     0  03:10      0.93    0.43    1.00
  YS02001745YS02001748 CONDUIT    471.22     0  02:33      1.46    0.18    0.98
  YS02001748YS02001751 CONDUIT    443.01     0  03:01      1.03    0.22    1.00
  YS02001751YS02001754 CONDUIT    442.81     0  03:01      0.88    0.21    1.00
  YS02001754YS02001757 CONDUIT    443.25     0  03:01      0.56    0.18    1.00
  YS02001882YS02001884 CONDUIT     20.88     0  04:10      0.12    0.02    1.00
  YS02001884YS02001887 CONDUIT     26.10     0  04:10      0.08    0.03    1.00
  YS02001890YS02001895 CONDUIT    517.92     0  02:59      0.66    0.24    1.00
  YS02001895YS02001898 CONDUIT    517.91     0  02:58      0.66    0.90    1.00
  YS02001898YS02001901 CONDUIT    518.08     0  02:59      0.66    0.33    1.00
  YS02001901YS02001904 CONDUIT    517.55     0  02:59      0.66    0.80    1.00
  YS02001904YS02001907 CONDUIT    518.30     0  02:59      0.66    0.18    1.00
  YS02001887YS02001890 CONDUIT    681.03     0  03:01      0.87    1.17    1.00
  YS02001652YS02001649 CONDUIT    501.39     0  03:01      0.64    0.25    1.00
  YS02001655YS02001652 CONDUIT    501.18     0  03:01      0.94    0.24    1.00
  YS02001658YS02001655 CONDUIT    500.78     0  03:01      1.18    0.21    1.00
  YS02001661YS02001658 CONDUIT    507.96     0  02:31      1.52    0.20    1.00
  YS02001664YS02001661 CONDUIT    670.90     0  02:42      1.42    0.21    0.77
  YSB1154YSB6556       CONDUIT     43.28     0  03:01      0.18    0.08    0.73
  YSB1174YSB1171       CONDUIT     36.65     0  03:01      0.11    0.06    0.85
  YSB1171HS02004479    CONDUIT     75.43     0  03:02      0.54    0.05    0.68
  HS02004881HS02006253 CONDUIT    140.46     0  03:01      2.12    0.03    0.54
  YS02001793JiankangQianchi CONDUIT   1059.35     0  02:20     16.75    0.08    1.00
  YS02001757CaochengTiaoxuchi CONDUIT   1681.72     0  02:40      2.17    0.74    1.00
  WSF200WS02003060     CONDUIT    939.11     0  03:04      1.93    0.21    0.45
  1                    CONDUIT   1335.08     0  03:07      3.59    0.46    0.48
  CC-Pump-1            PUMP       200.00     0  03:00              1.00
  CC-Pump-2            PUMP       200.00     0  03:40              1.00
  JK-Pump-1            PUMP       300.00     0  00:00              1.00
  JK-Pump-2            PUMP       683.00     0  02:40              1.00
  XR-Pump-1            PUMP        95.00     0  00:00              1.00
  XR-Pump-2            PUMP        95.00     0  00:00              1.00
  XR-Pump-3            PUMP        95.00     0  00:00              1.00
  XR-Pump-4            PUMP        95.00     0  00:00              1.00
  
  
  ***************************
  Flow Classification Summary
  ***************************
  
  -------------------------------------------------------------------------------------
                      Adjusted    ---------- Fraction of Time in Flow Class ---------- 
                       /Actual         Up    Down  Sub   Sup   Up    Down  Norm  Inlet 
  Conduit               Length    Dry  Dry   Dry   Crit  Crit  Crit  Crit  Ltd   Ctrl  
  -------------------------------------------------------------------------------------
  WS02003066WSF200        1.00   0.01  0.02  0.00  0.00  0.97  0.00  0.00  0.49  0.00
  WS02006287WS02006284    1.00   0.03  0.01  0.00  0.61  0.34  0.00  0.00  0.65  0.00
  WS02006284WS02006280    1.00   0.04  0.00  0.00  0.00  0.00  0.00  0.96  0.00  0.00
  WS02006280WS02006229    1.00   0.04  0.00  0.00  0.01  0.02  0.00  0.93  0.01  0.00
  WS02006229WS02006228    1.00   0.00  0.00  0.00  1.00  0.00  0.00  0.00  0.00  0.00
  WS02006256WS02006235    1.00   0.00  0.00  0.00  1.00  0.00  0.00  0.00  0.00  0.00
  WS02006253WS02006251    1.00   0.02  0.02  0.00  0.96  0.00  0.01  0.00  0.00  0.00
  WS02006252WS02006251    1.00   0.18  0.00  0.00  0.18  0.00  0.63  0.00  0.00  0.00
  WS02006251WS02006249    1.00   0.00  0.00  0.00  1.00  0.00  0.00  0.00  0.24  0.00
  WS02006249WS02006248    1.00   0.00  0.01  0.00  0.89  0.00  0.11  0.00  0.00  0.00
  WS02006248WS02006247    1.00   0.01  0.00  0.00  0.99  0.00  0.00  0.00  0.16  0.00
  WS02006247WS02006245    1.00   0.00  0.00  0.00  0.99  0.00  0.00  0.01  0.00  0.00
  WS02006245WS02006243    1.00   0.00  0.00  0.00  0.95  0.00  0.00  0.05  0.00  0.00
  WS02006243WS02006242    1.00   0.00  0.00  0.00  1.00  0.00  0.00  0.00  0.23  0.00
  WS02006242WS02006240    1.00   0.00  0.00  0.00  1.00  0.00  0.00  0.00  0.00  0.00
  WS02006240WS02006239    1.00   0.00  0.00  0.00  0.95  0.00  0.00  0.05  0.01  0.00
  WS02006239WS02006238    1.00   0.00  0.00  0.00  1.00  0.00  0.00  0.00  0.13  0.00
  WS02006238WS02006235    1.00   0.00  0.00  0.00  1.00  0.00  0.00  0.00  0.00  0.00
  WS02006235WS02006234    1.00   0.00  0.00  0.00  0.96  0.00  0.04  0.00  0.00  0.00
  WS02006234WS02006232    1.00   0.00  0.00  0.00  1.00  0.00  0.00  0.00  0.09  0.00
  WS02006232WS02006231    1.00   0.00  0.00  0.00  1.00  0.00  0.00  0.00  0.00  0.00
  WS02006231WS02006230    1.00   0.00  0.00  0.00  0.71  0.00  0.29  0.00  0.00  0.00
  WS02006230WS02006229    1.00   0.00  0.00  0.00  1.00  0.00  0.00  0.00  0.00  0.00
  WS02006228WS02006109    1.00   0.00  0.00  0.00  1.00  0.00  0.00  0.00  0.00  0.00
  WS02006116WS02004401    1.00   0.01  0.00  0.00  0.99  0.00  0.00  0.00  0.00  0.00
  WS02006115WS02006116    1.00   0.01  0.00  0.00  0.99  0.00  0.00  0.00  0.00  0.00
  WS02006113WS02006111    1.00   0.01  0.00  0.00  0.04  0.95  0.00  0.00  0.16  0.00
  WS02006112WS02006115    1.00   0.01  0.00  0.00  0.99  0.00  0.00  0.00  0.00  0.00
  WS02006111WS02006112    1.00   0.01  0.00  0.00  0.99  0.00  0.00  0.00  0.86  0.00
  WS02006110WS02006113    1.00   0.00  0.00  0.00  0.99  0.00  0.00  0.00  0.00  0.00
  WS02006109WS02006110    1.00   0.00  0.00  0.00  0.99  0.00  0.00  0.00  0.00  0.00
  WS02004411WS02004412    1.00   0.02  0.00  0.00  0.98  0.00  0.00  0.00  0.00  0.00
  WS02004401WS02004402    1.00   0.01  0.00  0.00  0.99  0.00  0.00  0.00  0.00  0.00
  WS02004413WS02003067    1.00   0.02  0.01  0.00  0.00  0.00  0.97  0.00  0.00  0.00
  WS02004412WS02004413    1.00   0.02  0.00  0.00  0.98  0.00  0.00  0.00  0.01  0.00
  WS02004410WS02004411    1.00   0.02  0.00  0.00  0.98  0.00  0.00  0.00  0.00  0.00
  WS02004409WS02004410    1.00   0.02  0.00  0.00  0.98  0.00  0.00  0.00  0.02  0.00
  WS02004407WS02004409    1.00   0.02  0.00  0.00  0.98  0.00  0.00  0.00  0.95  0.00
  WS02004406WS02004407    1.00   0.00  0.02  0.00  0.98  0.00  0.00  0.00  0.00  0.00
  WS02004405WS02004406    1.00   0.00  0.00  0.00  1.00  0.00  0.00  0.00  0.00  0.00
  WS02004404WS02004405    1.00   0.00  0.00  0.00  1.00  0.00  0.00  0.00  0.00  0.00
  WS02004403WS02004404    1.00   0.00  0.01  0.00  0.99  0.00  0.00  0.00  0.00  0.00
  WS02004402WS02004403    1.00   0.01  0.00  0.00  0.99  0.00  0.00  0.00  0.00  0.00
  WS02004139WS02001211    1.00   0.00  0.00  0.00  1.00  0.00  0.00  0.00  0.00  0.00
  WS02004138WS02004139    1.00   0.00  0.00  0.00  1.00  0.00  0.00  0.00  1.00  0.00
  WS02003067WS02003066    1.00   0.03  0.00  0.00  0.97  0.00  0.00  0.00  0.00  0.00
  WS02001213WS02003059    1.00   0.00  0.00  0.00  1.00  0.00  0.00  0.00  0.00  0.00
  WS02001212WS02001213    1.00   0.00  0.00  0.00  0.93  0.00  0.07  0.00  0.00  0.00
  WS02001211WS02001212    1.00   0.00  0.00  0.00  1.00  0.00  0.00  0.00  0.00  0.00
  WS02003072WS02003073    1.00   0.00  0.00  0.00  0.00  0.00  0.00  1.00  0.00  0.00
  WS02003069WS02003072    1.00   0.00  0.00  0.00  1.00  0.00  0.00  0.00  0.11  0.00
  WS02003060WS02003069    1.00   0.00  0.00  0.00  0.99  0.01  0.00  0.00  0.09  0.00
  WS02003059WS02003060    1.00   0.00  0.00  0.00  1.00  0.00  0.00  0.00  0.01  0.00
  HS02004901HS02004770    1.00   0.04  0.00  0.00  0.96  0.00  0.00  0.00  0.00  0.00
  HS02004876HS02004881    1.00   0.01  0.00  0.00  0.91  0.08  0.00  0.00  0.00  0.00
  HS02004870HS02004876    1.00   0.00  0.00  0.00  0.99  0.00  0.00  0.00  0.95  0.00
  HS02004842HS02004848    1.00   0.00  0.04  0.00  0.96  0.00  0.00  0.00  0.54  0.00
  HS02004837HS02004842    1.00   0.00  0.00  0.00  1.00  0.00  0.00  0.00  0.11  0.00
  HS02004830HS02004837    1.00   0.00  0.00  0.00  1.00  0.00  0.00  0.00  0.99  0.00
  HS02004824HS02004830    1.00   0.00  0.00  0.00  1.00  0.00  0.00  0.00  0.01  0.00
  HS02004817HS02004824    1.00   0.00  0.00  0.00  1.00  0.00  0.00  0.00  0.97  0.00
  HS02004770HS02004777    1.00   0.00  0.04  0.00  0.96  0.00  0.00  0.00  0.03  0.00
  HS02004799HS02004480    1.00   0.00  0.01  0.00  0.95  0.00  0.03  0.00  0.00  0.00
  HS02004792HS02004799    1.00   0.00  0.00  0.00  1.00  0.00  0.00  0.00  0.98  0.00
  HS02004788HS02004792    1.00   0.00  0.00  0.00  1.00  0.00  0.00  0.00  0.98  0.00
  HS02004785HS02004788    1.00   0.00  0.00  0.00  1.00  0.00  0.00  0.00  0.00  0.00
  HS02004777HS02004785    1.00   0.00  0.00  0.00  1.00  0.00  0.00  0.00  0.12  0.00
  HS02004480HS02004478    1.00   0.04  0.00  0.00  0.70  0.00  0.00  0.27  0.00  0.00
  HS02004479HS02004480    1.00   0.01  0.00  0.00  0.99  0.00  0.00  0.00  0.12  0.00
  HS02004862HS02004870    1.00   0.00  0.00  0.00  1.00  0.00  0.00  0.00  0.04  0.00
  HS02004848HS02004852    1.00   0.04  0.00  0.00  0.96  0.00  0.00  0.00  0.64  0.00
  HS02004856HS02004862    1.00   0.00  0.05  0.00  0.95  0.00  0.00  0.00  0.83  0.00
  HS02004852HS02004856    1.00   0.04  0.00  0.00  0.96  0.00  0.00  0.00  0.81  0.00
  HS02004802HS02004478    1.00   0.04  0.00  0.00  0.96  0.00  0.00  0.00  0.02  0.00
  HS02004478WS02006287    1.00   0.05  0.00  0.00  0.78  0.18  0.00  0.00  0.65  0.00
  HS02004817HS02004807    1.00   0.00  0.04  0.00  0.96  0.00  0.00  0.00  0.01  0.00
  HS02004807HS02004802    1.00   0.04  0.00  0.00  0.96  0.00  0.00  0.00  0.00  0.00
  YS02001759YS02001757    1.00   0.00  0.00  0.00  1.00  0.00  0.00  0.00  0.16  0.00
  YS02001762YS02001759    1.00   0.00  0.00  0.00  1.00  0.00  0.00  0.00  0.03  0.00
  YS02001765YS02001762    1.00   0.00  0.00  0.00  1.00  0.00  0.00  0.00  0.14  0.00
  YS02001770YS02001767    1.00   0.00  0.00  0.00  1.00  0.00  0.00  0.00  0.00  0.00
  YS02001774YS02001770    1.00   0.00  0.04  0.00  0.96  0.00  0.00  0.00  0.03  0.00
  YS02001779YS02001774    1.00   0.00  0.00  0.00  1.00  0.00  0.00  0.00  0.19  0.00
  YS02001649YS02001757    1.00   0.00  0.00  0.00  1.00  0.00  0.00  0.00  0.16  0.00
  YS02001767YS02001765    1.00   0.00  0.00  0.00  1.00  0.00  0.00  0.00  0.00  0.00
  YS02006561YS02001783    1.00   0.05  0.00  0.00  0.39  0.56  0.00  0.00  0.45  0.00
  YS02001783YS02001784    1.00   0.00  0.05  0.00  0.95  0.00  0.00  0.00  0.00  0.00
  YS02001784YS02001785    1.00   0.00  0.00  0.00  1.00  0.00  0.00  0.00  0.18  0.00
  YS02001788YS02001790    1.00   0.00  0.00  0.00  0.45  0.55  0.00  0.00  0.35  0.00
  YS02001790YS02001791    1.00   0.00  0.00  0.00  0.41  0.59  0.00  0.00  0.42  0.00
  YS02001791YS02001793    1.00   0.00  0.00  0.00  0.45  0.55  0.00  0.00  0.02  0.00
  YS02001910YS02001907    1.00   0.00  0.00  0.00  0.99  0.00  0.00  0.01  0.12  0.00
  YS02001786YS02001788    1.00   0.00  0.00  0.00  0.43  0.57  0.00  0.00  0.00  0.00
  YS02001915YS02001910    1.00   0.00  0.00  0.00  0.99  0.01  0.00  0.00  0.16  0.00
  YS02001918YS02001915    1.00   0.00  0.00  0.00  0.99  0.01  0.00  0.00  0.54  0.00
  YS02001923YS02001920    1.00   0.00  0.00  0.00  1.00  0.00  0.00  0.00  0.82  0.00
  YS02001926YS02001923    1.00   0.00  0.02  0.00  0.15  0.00  0.82  0.00  0.00  0.00
  YS02001929YS02001926    1.00   0.00  0.04  0.00  0.96  0.00  0.00  0.00  0.74  0.00
  YS02001920YS02001918    1.00   0.00  0.00  0.00  1.00  0.00  0.00  0.00  0.00  0.00
  YS02001629YS02163301    1.00   0.04  0.00  0.00  0.95  0.00  0.00  0.00  0.00  0.00
  YS02001619YS02001622    1.00   0.04  0.00  0.00  0.96  0.00  0.00  0.00  0.00  0.00
  YS02001622YS02001625    1.00   0.04  0.00  0.00  0.96  0.00  0.00  0.00  0.05  0.00
  YS02001625YS02001629    1.00   0.04  0.02  0.00  0.93  0.00  0.02  0.00  0.00  0.00
  YS02163301YS02001633    1.00   0.00  0.04  0.00  0.96  0.00  0.00  0.00  0.00  0.00
  YS02163601YS02164001    1.00   0.00  0.03  0.00  0.97  0.00  0.00  0.00  0.00  0.00
  YS02164001YS02001641    1.00   0.00  0.02  0.00  0.97  0.00  0.00  0.00  0.06  0.00
  YS02001641YS02001644    1.00   0.00  0.00  0.00  1.00  0.00  0.00  0.00  0.00  0.00
  YS02001647YS02001649    1.00   0.00  0.05  0.00  0.95  0.00  0.00  0.00  0.01  0.00
  YS02006553YS02006556    1.00   0.01  0.00  0.00  0.99  0.00  0.00  0.00  0.03  0.00
  YS02006556YS02006558    1.00   0.00  0.00  0.00  1.00  0.00  0.00  0.00  0.00  0.00
  YSB6556YSB1171          1.00   0.02  0.02  0.00  0.96  0.00  0.00  0.00  0.00  0.00
  YS02001907YS02006553    1.00   0.00  0.01  0.00  0.99  0.00  0.00  0.00  0.00  0.00
  YS02006558YS02006561    1.00   0.05  0.00  0.00  0.16  0.79  0.00  0.00  0.46  0.00
  YS02001633YS02163601    1.00   0.00  0.00  0.00  1.00  0.00  0.00  0.00  0.15  0.00
  YS02001644YS02001647    1.00   0.00  0.05  0.00  0.95  0.00  0.00  0.00  0.00  0.00
  YS02001745YS02001748    1.00   0.00  0.00  0.00  0.90  0.01  0.00  0.09  0.04  0.00
  YS02001748YS02001751    1.00   0.00  0.00  0.00  0.97  0.03  0.00  0.00  0.15  0.00
  YS02001751YS02001754    1.00   0.00  0.00  0.00  0.94  0.00  0.00  0.06  0.02  0.00
  YS02001754YS02001757    1.00   0.00  0.00  0.00  1.00  0.00  0.00  0.00  0.18  0.00
  YS02001882YS02001884    1.00   0.04  0.00  0.00  0.96  0.00  0.00  0.00  0.00  0.00
  YS02001884YS02001887    1.00   0.02  0.01  0.00  0.97  0.00  0.00  0.00  0.00  0.00
  YS02001890YS02001895    1.00   0.00  0.04  0.00  0.95  0.00  0.00  0.00  0.00  0.00
  YS02001895YS02001898    1.00   0.05  0.00  0.00  0.94  0.00  0.01  0.00  0.00  0.00
  YS02001898YS02001901    1.00   0.05  0.00  0.00  0.95  0.00  0.00  0.00  0.01  0.00
  YS02001901YS02001904    1.00   0.05  0.00  0.00  0.95  0.00  0.00  0.00  0.00  0.00
  YS02001904YS02001907    1.00   0.00  0.05  0.00  0.95  0.00  0.00  0.00  0.00  0.00
  YS02001887YS02001890    1.00   0.00  0.00  0.00  0.99  0.00  0.01  0.00  0.00  0.00
  YS02001652YS02001649    1.00   0.00  0.00  0.00  1.00  0.00  0.00  0.00  0.17  0.00
  YS02001655YS02001652    1.00   0.00  0.00  0.00  0.94  0.00  0.00  0.06  0.02  0.00
  YS02001658YS02001655    1.00   0.00  0.04  0.00  0.93  0.03  0.00  0.00  0.10  0.00
  YS02001661YS02001658    1.00   0.04  0.00  0.00  0.90  0.06  0.00  0.00  0.11  0.00
  YS02001664YS02001661    1.00   0.04  0.00  0.00  0.92  0.04  0.00  0.00  0.20  0.00
  YSB1154YSB6556          1.00   0.04  0.00  0.00  0.96  0.00  0.00  0.00  0.02  0.00
  YSB1174YSB1171          1.00   0.02  0.01  0.00  0.97  0.00  0.00  0.00  0.00  0.00
  YSB1171HS02004479       1.00   0.02  0.00  0.00  0.98  0.00  0.00  0.00  0.10  0.00
  HS02004881HS02006253    1.00   0.02  0.00  0.00  0.73  0.02  0.00  0.23  0.57  0.00
  YS02001793JiankangQianchi    1.00   0.00  0.00  0.00  0.69  0.31  0.00  0.00  0.38  0.00
  YS02001757CaochengTiaoxuchi    1.00   0.00  0.07  0.00  0.93  0.00  0.00  0.00  0.00  0.00
  WSF200WS02003060        1.00   0.00  0.01  0.00  0.98  0.02  0.00  0.00  0.38  0.00
  1                       1.00   0.00  0.00  0.00  0.00  1.00  0.00  0.00  0.52  0.00
  
  
  *************************
  Conduit Surcharge Summary
  *************************
  
  ----------------------------------------------------------------------------
                                                           Hours        Hours 
                         --------- Hours Full --------   Above Full   Capacity
  Conduit                Both Ends  Upstream  Dnstream   Normal Flow   Limited
  ----------------------------------------------------------------------------
  WS02006229WS02006228        4.19      4.22      4.19      4.64         4.19
  WS02006256WS02006235        5.80      5.80      6.84      4.68         0.01
  WS02006253WS02006251        2.28      2.28      2.32      0.01         0.01
  WS02006252WS02006251        1.95      1.95      2.61      2.06         0.01
  WS02006251WS02006249        2.29      2.29      2.35      1.34         1.18
  WS02006249WS02006248        2.31      2.32      2.35      3.70         0.01
  WS02006248WS02006247        2.35      2.35      2.49      0.01         0.01
  WS02006247WS02006245        2.48      2.53      2.48      4.10         2.34
  WS02006245WS02006243        2.53      2.53      2.74      0.11         0.20
  WS02006243WS02006242        2.84      2.84      3.46      0.01         0.01
  WS02006242WS02006240        3.41      3.41      3.56      2.31         0.01
  WS02006240WS02006239        3.44      3.45      3.54      1.09         0.87
  WS02006239WS02006238        3.68      3.68      3.81      1.32         1.02
  WS02006238WS02006235        3.80      3.80      3.89      0.01         0.02
  WS02006235WS02006234        3.63      3.63      3.76      5.72         0.01
  WS02006234WS02006232        3.72      3.72      4.05      1.40         1.33
  WS02006232WS02006231        2.69      2.69      4.05      1.63         0.01
  WS02006231WS02006230        2.32      2.32      2.77      5.89         0.01
  WS02006230WS02006229        4.39      4.55      4.39      6.13         4.39
[...]
  YS02001770YS02001767        5.69      5.69      5.69      0.21         0.72
  YS02001774YS02001770        5.68      5.68      5.74      0.01         0.01
  YS02001779YS02001774        5.56      5.56      5.74      0.01         0.01
  YS02001649YS02001757        5.75      5.75      5.86      0.01         0.01
  YS02001767YS02001765        5.69      5.69      5.72      0.01         0.01
  YS02006561YS02001783        0.90      0.90      1.43      0.01         0.01
  YS02001783YS02001784        1.40      1.43      1.41      1.46         1.28
  YS02001784YS02001785        1.33      1.41      1.33      2.50         1.33
  YS02001788YS02001790        1.16      1.16      2.27      0.01         0.01
  YS02001790YS02001791        2.27      2.27      2.37      1.16         1.14
  YS02001791YS02001793        2.37      2.37      2.75      0.01         0.01
  YS02001910YS02001907        1.28      1.28      1.89      0.01         0.01
  YS02001786YS02001788        1.16      1.33      1.16      2.08         1.16
  YS02001915YS02001910        1.08      1.08      1.28      0.01         0.01
  YS02001918YS02001915        0.87      0.87      1.08      0.01         0.01
  YS02001923YS02001920        0.74      0.74      0.91      0.01         0.01
  YS02001920YS02001918        0.87      0.87      0.91      0.01         0.01
  YS02001629YS02163301        5.67      5.67      5.68      0.01         0.01
  YS02001619YS02001622        5.38      5.38      5.41      0.01         0.01
  YS02001622YS02001625        5.41      5.41      5.64      0.01         0.01
  YS02001625YS02001629        5.39      5.39      5.64      0.01         0.01
  YS02163301YS02001633        5.68      5.68      5.72      0.01         0.01
  YS02163601YS02164001        5.72      5.72      5.75      0.01         0.01
  YS02164001YS02001641        5.72      5.72      5.73      0.01         0.03
  YS02001641YS02001644        5.73      5.73      5.73      1.71         1.82
  YS02001647YS02001649        5.62      5.62      5.75      0.01         0.01
  YS02006553YS02006556        1.51      1.51      1.97      0.01         0.01
  YS02006556YS02006558        1.67      1.67      2.04      0.01         0.01
  YSB6556YSB1171              0.01      0.01      0.07      0.01         0.01
  YS02001907YS02006553        2.53      2.53      2.76      0.01         0.01
  YS02006558YS02006561        1.02      1.46      1.02      2.35         1.02
  YS02001633YS02163601        5.71      5.71      5.75      0.01         0.01
  YS02001644YS02001647        5.62      5.62      5.73      0.01         0.01
  YS02001745YS02001748        0.01      0.01      5.22      0.01         0.01
  YS02001748YS02001751        5.26      5.26      5.38      0.01         0.01
  YS02001751YS02001754        5.38      5.38      5.58      0.01         0.01
  YS02001754YS02001757        5.61      5.61      5.86      0.01         0.01
  YS02001882YS02001884        1.11      1.11      1.14      0.01         0.01
  YS02001884YS02001887        1.19      1.19      1.21      0.01         0.01
  YS02001890YS02001895        1.07      1.07      1.30      0.01         0.01
  YS02001895YS02001898        1.05      1.05      1.07      0.01         0.01
  YS02001898YS02001901        1.08      1.08      1.18      0.01         0.01
  YS02001901YS02001904        1.15      1.15      1.18      0.01         0.01
  YS02001904YS02001907        1.15      1.15      2.00      0.01         0.01
  YS02001887YS02001890        1.24      1.24      1.26      0.16         0.01
  YS02001652YS02001649        5.63      5.63      5.75      0.01         0.01
  YS02001655YS02001652        5.41      5.41      5.61      0.01         0.01
  YS02001658YS02001655        5.24      5.24      5.41      0.01         0.01
  YS02001661YS02001658        0.16      0.16      5.24      0.01         0.01
  YS02001664YS02001661        0.01      0.01      1.14      0.01         0.01
  HS02004881HS02006253        0.01      0.01      1.75      0.01         0.01
  YS02001793JiankangQianchi        2.66      2.66      4.38      0.01         0.01
  YS02001757CaochengTiaoxuchi        5.11      5.11      5.86      0.01         0.01
  
  
  ***************
  Pumping Summary
  ***************
  
  ---------------------------------------------------------------------------------------------------------
                                                  Min       Avg       Max     Total     Power    % Time Off
                        Percent   Number of      Flow      Flow      Flow    Volume     Usage    Pump Curve
  Pump                 Utilized   Start-Ups       LPS       LPS       LPS  10^6 ltr     Kw-hr    Low   High
  ---------------------------------------------------------------------------------------------------------
  CC-Pump-1               61.69           2      0.00    179.37    200.00     3.060      3.26    0.0    0.0
  CC-Pump-2               36.17           5      0.00    102.93    200.00     1.320      1.86    0.0    0.0
  JK-Pump-1               63.82           4      0.00    246.49    300.00     4.296     60.04    0.0    0.0
  JK-Pump-2               48.93           3      0.00    446.38    683.00     6.252     81.75    0.0   97.6
  XR-Pump-1               97.88           2      0.00     94.24     95.00     2.565     25.51    0.0    0.0
  XR-Pump-2               97.88           2      0.00     94.24     95.00     2.565     25.51    0.0    0.0
  XR-Pump-3               95.75           3      0.00     91.78     95.00     2.394     21.76    0.0    0.0
  XR-Pump-4               95.75           3      0.00     91.78     95.00     2.394     21.76    0.0    0.0
  
  
  ***************************
  Link Pollutant Load Summary
  ***************************
  
  ------------------------------------------------------------------------------------------
                                 COD            SS            TN            TP         NH4-N
  Link                            kg            kg            kg            kg            kg
  ------------------------------------------------------------------------------------------
  WS02003066WSF200           914.107      1704.343        23.681         2.055        12.434
  WS02006287WS02006284       319.516       608.200        10.316         1.015         5.679
  WS02006284WS02006280       320.008       609.012        10.362         1.021         5.708
  WS02006280WS02006229       319.951       608.898        10.359         1.021         5.707
  WS02006229WS02006228       912.738      1701.956        23.111         1.973        12.060
  WS02006256WS02006235       223.301       409.345         5.111         0.408         2.611
  WS02006253WS02006251        60.345       118.904         1.304         0.096         0.642
  WS02006252WS02006251       377.410       691.939         7.744         0.549         3.787
  WS02006251WS02006249       430.838       798.193         8.934         0.639         4.380
  WS02006249WS02006248       379.806       702.054         7.891         0.564         3.871
  WS02006248WS02006247       379.183       700.927         7.878         0.563         3.864
  WS02006247WS02006245       378.387       699.492         7.860         0.562         3.855
  WS02006245WS02006243       377.231       697.472         7.830         0.560         3.839
  WS02006243WS02006242       376.790       696.706         7.820         0.559         3.834
  WS02006242WS02006240       375.389       694.193         7.788         0.557         3.818
  WS02006240WS02006239       374.446       692.479         7.769         0.555         3.809
  WS02006239WS02006238       374.641       692.701         7.794         0.559         3.825
  WS02006238WS02006235       374.359       692.063         7.801         0.560         3.830
  WS02006235WS02006234       595.779      1098.262        12.835         0.960         6.397
  WS02006234WS02006232       595.371      1097.522        12.830         0.960         6.396
  WS02006232WS02006231       594.891      1096.666        12.818         0.959         6.389
  WS02006231WS02006230       594.340      1095.664        12.807         0.958         6.384
  WS02006230WS02006229       593.482      1094.237        12.778         0.955         6.368
  WS02006228WS02006109       912.168      1700.940        23.096         1.972        12.052
  WS02006116WS02004401       927.153      1727.914        23.966         2.076        12.576
  WS02006115WS02006116       928.229      1729.824        23.995         2.078        12.591
  WS02006113WS02006111       918.516      1710.720        23.842         2.067        12.524
  WS02006112WS02006115       929.412      1731.880        24.037         2.082        12.614
  WS02006111WS02006112       918.138      1710.089        23.830         2.066        12.517
  WS02006110WS02006113       919.113      1711.767        23.864         2.069        12.536
  WS02006109WS02006110       920.160      1713.611        23.905         2.073        12.559
  WS02004411WS02004412       918.219      1711.649        23.813         2.068        12.507
  WS02004401WS02004402       925.969      1725.831        23.927         2.072        12.554
  WS02004413WS02003067       914.905      1705.842        23.697         2.056        12.442
  WS02004412WS02004413       916.769      1709.075        23.771         2.064        12.484
  WS02004410WS02004411       919.443      1713.852        23.846         2.070        12.524
  WS02004409WS02004410       920.696      1716.084        23.883         2.074        12.544
  WS02004407WS02004409       921.709      1717.918        23.906         2.076        12.556
  WS02004406WS02004407       921.980      1718.464        23.904         2.075        12.554
  WS02004405WS02004406       923.562      1721.267        23.961         2.081        12.585
  WS02004404WS02004405       924.396      1722.841        23.955         2.078        12.578
  WS02004403WS02004404       923.920      1722.199        23.866         2.067        12.521
  WS02004402WS02004403       924.927      1723.973        23.899         2.070        12.539
  WS02004139WS02001211      1382.553      2295.507       112.245        13.702        69.189
  WS02004138WS02004139      1388.945      2306.185       112.739        13.761        69.492
  WS02003067WS02003066       914.369      1704.819        23.690         2.056        12.439
  WS02001213WS02003059      1415.239      2346.817       115.647        14.131        71.327
  WS02001212WS02001213      1424.536      2362.229       116.399        14.223        71.791
  WS02001211WS02001212      1426.772      2365.882       116.591        14.246        71.910
  WS02003072WS02003073      2428.347      4208.109       149.287        17.438        90.004
  WS02003069WS02003072      2433.685      4216.866       149.712        17.490        90.266
  WS02003060WS02003069      2436.533      4221.835       149.853        17.505        90.349
  WS02003059WS02003060      1411.914      2341.193       115.409        14.102        71.182
  HS02004901HS02004770        13.094        25.474         0.248         0.019         0.116
  HS02004876HS02004881        45.519        90.356         0.999         0.073         0.491
  HS02004870HS02004876        34.384        68.109         0.798         0.060         0.395
  HS02004842HS02004848         6.456        12.343         0.134         0.009         0.062
  HS02004837HS02004842        11.056        19.636         0.603         0.068         0.356
  HS02004830HS02004837        70.299       122.729         4.643         0.552         2.827
  HS02004824HS02004830        71.071       123.986         4.715         0.561         2.871
  HS02004817HS02004824        97.167       176.414         5.254         0.596         3.135
  HS02004770HS02004777        49.663        97.715         1.021         0.069         0.472
  HS02004799HS02004480       162.332       310.859         4.263         0.379         2.209
  HS02004792HS02004799       147.279       280.136         4.028         0.367         2.105
  HS02004788HS02004792        82.820       157.694         2.666         0.255         1.440
  HS02004785HS02004788        51.123       100.054         1.172         0.089         0.567
  HS02004777HS02004785        50.447        98.946         1.112         0.081         0.530
  HS02004480HS02004478       204.838       395.226         4.972         0.429         2.543
  HS02004479HS02004480        46.128        90.116         1.037         0.091         0.538
  HS02004862HS02004870        25.801        50.343         0.628         0.050         0.314
  HS02004848HS02004852        10.252        19.885         0.210         0.014         0.097
  HS02004856HS02004862        17.525        34.751         0.350         0.023         0.164
  HS02004852HS02004856        10.256        19.890         0.210         0.014         0.097
  HS02004802HS02004478       115.346       214.062         5.398         0.592         3.169
  HS02004478WS02006287       319.726       608.563        10.332         1.017         5.690
  HS02004817HS02004807        95.862       174.321         5.130         0.581         3.057
  HS02004807HS02004802       115.602       214.462         5.430         0.596         3.190
  YS02001759YS02001757       370.822       681.993         7.391         0.514         3.610
  YS02001762YS02001759       167.347       308.246         3.555         0.251         1.760
  YS02001765YS02001762       167.533       309.038         3.578         0.253         1.774
  YS02001770YS02001767       167.050       309.600         3.370         0.223         1.636
  YS02001774YS02001770       244.743       478.130         4.692         0.311         2.266
  YS02001779YS02001774       243.875       476.415         4.774         0.324         2.324
  YS02001649YS02001757       333.673       600.475         6.716         0.465         3.228
  YS02001767YS02001765       168.151       310.583         3.603         0.255         1.788
  YS02006561YS02001783      1026.050      1902.266        21.501         1.605        10.699
  YS02001783YS02001784      1025.907      1902.037        21.497         1.604        10.697
  YS02001784YS02001785      1033.197      1913.704        22.209         1.693        11.142
  YS02001788YS02001790      1033.735      1914.565        22.280         1.703        11.187
  YS02001790YS02001791      1034.695      1916.093        22.379         1.715        11.250
  YS02001791YS02001793      1034.586      1915.905        22.374         1.715        11.247
  YS02001910YS02001907       391.024       721.126         9.387         0.718         4.810
  YS02001786YS02001788      1033.365      1913.975        22.236         1.697        11.160
  YS02001915YS02001910       391.126       721.297         9.340         0.711         4.778
  YS02001918YS02001915       186.054       328.063         5.127         0.467         2.762
  YS02001923YS02001920       165.940       295.703         3.178         0.223         1.543
  YS02001926YS02001923       164.663       293.556         3.103         0.214         1.498
  YS02001929YS02001926       164.222       292.810         3.066         0.210         1.475
  YS02001920YS02001918       185.659       327.217         5.091         0.463         2.739
  YS02001629YS02163301        96.133       169.986         2.029         0.131         0.947
  YS02001619YS02001622       175.879       321.144         3.602         0.236         1.684
  YS02001622YS02001625       174.689       319.251         3.573         0.234         1.671
  YS02001625YS02001629        97.225       171.776         2.054         0.132         0.958
  YS02163301YS02001633        96.462       170.792         2.031         0.132         0.948
  YS02163601YS02164001       405.799       733.293         7.900         0.562         3.784
  YS02164001YS02001641       405.261       732.378         7.880         0.560         3.773
  YS02001641YS02001644       405.320       732.397         7.875         0.560         3.770
  YS02001647YS02001649       426.328       781.055         8.446         0.589         4.033
  YS02006553YS02006556       692.202      1272.832        14.877         1.139         7.487
  YS02006556YS02006558       692.090      1272.609        14.847         1.135         7.467
  YSB6556YSB1171              26.522        51.968         0.537         0.045         0.272
  YS02001907YS02006553       692.344      1273.122        14.885         1.140         7.492
  YS02006558YS02006561      1026.049      1902.259        21.501         1.605        10.699
  YS02001633YS02163601       406.529       734.431         7.881         0.558         3.768
  YS02001644YS02001647       432.743       792.562         8.548         0.596         4.080
  YS02001745YS02001748       247.333       463.120         5.246         0.349         2.575
  YS02001748YS02001751       246.724       461.719         5.369         0.368         2.660
  YS02001751YS02001754       245.829       460.239         5.360         0.368         2.657
  YS02001754YS02001757       246.582       461.364         5.525         0.391         2.765
  YS02001882YS02001884         3.122         5.400         0.063         0.005         0.032
  YS02001884YS02001887         7.075        12.507         0.139         0.011         0.069
  YS02001890YS02001895       450.910       846.365         8.300         0.624         4.049
  YS02001895YS02001898       450.737       846.133         8.294         0.624         4.045
  YS02001898YS02001901       450.481       845.694         8.288         0.623         4.042
  YS02001901YS02001904       450.312       845.453         8.294         0.624         4.047
  YS02001904YS02001907       450.475       845.686         8.346         0.631         4.081
  YS02001887YS02001890       468.241       880.729         8.645         0.653         4.222
  YS02001652YS02001649       195.641       364.129         3.935         0.284         1.846
  YS02001655YS02001652       196.140       364.944         3.948         0.285         1.853
  YS02001658YS02001655       195.622       364.139         3.861         0.273         1.796
  YS02001661YS02001658       197.044       366.652         3.890         0.275         1.809
  YS02001664YS02001661       216.219       398.776         4.315         0.304         2.004
  YSB1154YSB6556              26.085        51.272         0.486         0.038         0.239
  YSB1174YSB1171              18.022        35.563         0.361         0.029         0.181
  YSB1171HS02004479           46.093        90.060         1.040         0.092         0.540
  HS02004881HS02006253        51.801       103.289         1.107         0.080         0.542
  YS02001793JiankangQianchi      1035.515      1917.394        22.418         1.719        11.272
  YS02001757CaochengTiaoxuchi       635.205      1153.028        13.198         0.930         6.458
  WSF200WS02003060           913.736      1703.618        23.680         2.056        12.435
  1                         2434.466      4216.763       150.173        17.553        90.570
  CC-Pump-1                  263.931       483.888         5.414         0.384         2.648
  CC-Pump-2                  113.472       208.039         2.328         0.165         1.138
  JK-Pump-1                  314.282       581.498         6.982         0.548         3.541
  JK-Pump-2                  553.115      1046.540        11.142         0.820         5.499
  XR-Pump-1                  365.126       605.242        29.876         3.651        18.428
  XR-Pump-2                  365.126       605.242        29.876         3.651        18.428
  XR-Pump-3                  331.181       550.882        26.644         3.248        16.411
  XR-Pump-4                  331.181       550.882        26.644         3.248        16.411
  

  Analysis begun on:  Fri Jul 16 11:38:56 2021
  Analysis ended on:  Fri Jul 16 11:38:59 2021
  Total elapsed time: 00:00:03