
  EPA STORM WATER MANAGEMENT MODEL - VERSION 5.1 (Build 5.3.0.dev0)
  --------------------------------------------------------------

  WARNING 04: minimum elevation drop used for Conduit WS02004404WS02004405
  WARNING 03: negative offset ignored for Link YS02001904YS02001907
  
  *********************************************************
  NOTE: The summary statistics displayed in this report are
  based on results found at every computational time step,  
  not just on results from each reporting time step.
  *********************************************************
  
  ****************
  Analysis Options
  ****************
  Flow Units ............... LPS
  Process Models:
    Rainfall/Runoff ........ YES
    RDII ................... NO
    Snowmelt ............... NO
    Groundwater ............ NO
    Flow Routing ........... YES
    Ponding Allowed ........ NO
    Water Quality .......... YES
  Infiltration Method ...... HORTON
  Flow Routing Method ...... DYNWAVE
  Surcharge Method ......... EXTRAN
  Starting Date ............ 08/28/2015 08:00:00
  Ending Date .............. 08/28/2015 15:50:00
  Antecedent Dry Days ...... 8.0
  Report Time Step ......... 00:01:00
  Wet Time Step ............ 00:01:00
  Dry Time Step ............ 00:01:00
  Routing Time Step ........ 5.00 sec
  Variable Time Step ....... YES
  Maximum Trials ........... 8
  Number of Threads ........ 4
  Head Tolerance ........... 0.001500 m
  
  
  **************************        Volume         Depth
  Runoff Quantity Continuity     hectare-m            mm
  **************************     ---------       -------
  Total Precipitation ......         6.144        13.452
  Evaporation Loss .........         0.000         0.000
  Infiltration Loss ........         1.064         2.328
  Surface Runoff ...........         4.147         9.079
  Final Storage ............         0.935         2.047
  Continuity Error (%) .....        -0.020
  
  
  **************************           COD            SS            TN            TP         NH4-N
  Runoff Quality Continuity             kg            kg            kg            kg            kg
  **************************    ----------    ----------    ----------    ----------    ----------
  Initial Buildup ..........     41378.656     70582.865      1804.177       168.684      1032.807
  Surface Buildup ..........        21.799        40.924         2.400         0.218         1.395
  Wet Deposition ...........         0.000         0.000         0.000         0.000         0.000
  Sweeping Removal .........         0.000         0.000         0.000         0.000         0.000
  Infiltration Loss ........        97.311       184.943         1.849         0.130         0.881
  BMP Removal ..............         0.000         0.000         0.000         0.000         0.000
  Surface Runoff ...........      3769.819      7064.251        72.781         4.964        34.599
  Remaining Buildup ........     37531.916     63371.884      1731.919       163.806       998.709
  Continuity Error (%) .....         0.003         0.004         0.002         0.001         0.001
  
  
  **************************        Volume        Volume
  Flow Routing Continuity        hectare-m      10^6 ltr
  **************************     ---------     ---------
  Dry Weather Inflow .......         0.616         6.165
  Wet Weather Inflow .......         4.145        41.450
  Groundwater Inflow .......         0.000         0.000
  RDII Inflow ..............         0.000         0.000
  External Inflow ..........         0.102         1.024
  External Outflow .........         2.065        20.645
  Flooding Loss ............         2.365        23.649
  Evaporation Loss .........         0.000         0.000
  Exfiltration Loss ........         0.000         0.000
  Initial Stored Volume ....         0.076         0.761
  Final Stored Volume ......         0.660         6.598
  Continuity Error (%) .....        -3.022
  
  
  **************************           COD            SS            TN            TP         NH4-N
  Quality Routing Continuity            kg            kg            kg            kg            kg
  **************************    ----------    ----------    ----------    ----------    ----------
  Dry Weather Inflow .......      1541.201      2465.922       147.955        18.494        92.472
  Wet Weather Inflow .......      3768.912      7062.700        72.761         4.963        34.590
  Groundwater Inflow .......         0.000         0.000         0.000         0.000         0.000
  RDII Inflow ..............         0.000         0.000         0.000         0.000         0.000
  External Inflow ..........       183.418       293.469        17.608         2.201        11.005
  External Outflow .........      2449.269      4243.950       151.101        17.662        91.130
  Flooding Loss ............      2344.393      4377.760        59.445         5.156        31.152
  Exfiltration Loss ........         0.000         0.000         0.000         0.000         0.000
  Mass Reacted .............         0.000         0.000         0.000         0.000         0.000
  Initial Stored Mass ......         0.000         0.000         0.000         0.000         0.000
  Final Stored Mass ........       539.717       926.147        24.055         2.561        13.924
  Continuity Error (%) .....         2.915         2.792         1.563         1.086         1.348
  
  
  *************************
  Highest Continuity Errors
  *************************
  Node JK-storage (-14.08%)
  Node HS02004842 (13.41%)
  Node YS02001884 (11.63%)
  Node HS02004817 (2.53%)
  Node YSB1171 (2.46%)
  
  
  ***************************
  Time-Step Critical Elements
  ***************************
  Link WS02006252WS02006251 (69.01%)
  Link WS02006280WS02006229 (9.21%)
  Link YS02001793JiankangQianchi (6.61%)
  Link WS02004404WS02004405 (4.16%)
  Link WS02006238WS02006235 (2.23%)
  
  
  ********************************
  Highest Flow Instability Indexes
  ********************************
  Link WS02006113WS02006111 (37)
  Link YS02163301YS02001633 (32)
  Link YS02163601YS02164001 (32)
  Link YS02001629YS02163301 (32)
  Link YS02001619YS02001622 (31)
  
  
  *************************
  Routing Time Step Summary
  *************************
  Minimum Time Step           :     0.41 sec
  Average Time Step           :     1.10 sec
  Maximum Time Step           :     5.00 sec
  Percent in Steady State     :    -0.00
  Average Iterations per Step :     4.00
  Percent Not Converging      :    16.79
  
  
  ***************************
  Subcatchment Runoff Summary
  ***************************
  
  ------------------------------------------------------------------------------------------------------------------------------
                            Total      Total      Total      Total     Imperv       Perv      Total       Total     Peak  Runoff
                           Precip      Runon       Evap      Infil     Runoff     Runoff     Runoff      Runoff   Runoff   Coeff
  Subcatchment                 mm         mm         mm         mm         mm         mm         mm    10^6 ltr      LPS
  ------------------------------------------------------------------------------------------------------------------------------
  sub0                      13.45       0.00       0.00       0.63      12.47       0.31      12.77        0.01     3.75   0.950
  sub1                      13.45       0.00       0.00       1.12      11.88       0.36      12.24        0.08    25.66   0.910
  sub2                      13.45       0.00       0.00       4.44       8.39       0.53       8.92        0.08    25.29   0.663
  sub3                      13.45       0.00       0.00       4.56       8.35       0.42       8.77        0.20    55.75   0.652
  sub4                      13.45       0.00       0.00       1.22      11.71       0.26      11.97        0.25    65.52   0.890
  sub5                      13.45       0.00       0.00       0.68      12.41       0.26      12.67        0.14    44.76   0.942
  sub7                      13.45       0.00       0.00       0.86      12.18       0.35      12.53        0.04    14.26   0.931
  sub8                      13.45       0.00       0.00       0.87      12.17       0.34      12.50        0.08    26.26   0.930
  sub9                      13.45       0.00       0.00       0.88      12.17       0.33      12.50        0.06    19.64   0.929
  sub10                     13.45       0.00       0.00       0.78      12.29       0.29      12.58        0.14    44.00   0.935
  sub11                     13.45       0.00       0.00       0.77      12.30       0.31      12.61        0.15    48.45   0.938
  sub12                     13.45       0.00       0.00       1.25      11.66       0.50      12.16        0.11    38.10   0.904
  sub14                     13.45       0.00       0.00       0.88      12.16       0.33      12.49        0.12    38.67   0.929
  sub15                     13.45       0.00       0.00       3.37       9.35       0.66      10.01        0.17    57.01   0.744
  sub16                     13.45       0.00       0.00       3.56       8.97       0.88       9.85        0.10    37.63   0.732
  sub17                     13.45       0.00       0.00       3.47       9.10       0.84       9.94        0.09    30.67   0.739
  sub22                     13.45       0.00       0.00       4.98       7.63       0.81       8.43        0.53   184.54   0.627
  sub23                     13.45       0.00       0.00       4.17       8.43       0.81       9.24        0.44   154.22   0.687
  sub60                     13.45       0.00       0.00       1.53       9.85       0.09       9.93        3.01   438.14   0.738
  sub61                     13.45       0.00       0.00       2.16       9.95       0.12      10.07        3.11   536.45   0.749
  sub62                     13.45       0.00       0.00       0.98      10.84       0.10      10.94        3.36   552.35   0.813
  sub63                     13.45       0.00       0.00       3.77       8.69       0.14       8.83        2.67   492.63   0.656
  sub64                     13.45       0.00       0.00       1.93       9.45       0.09       9.54        2.90   416.72   0.709
  sub65                     13.45       0.00       0.00       1.67       9.61       0.08       9.70        2.98   423.09   0.721
  sub66                     13.45       0.00       0.00       3.81       8.10       0.09       8.18        2.51   380.66   0.608
  sub67                     13.45       0.00       0.00       0.95      11.38       0.13      11.51        3.55   679.52   0.856
  sub68                     13.45       0.00       0.00       1.75      10.45       0.13      10.59        3.26   586.26   0.787
  sub69                     13.45       0.00       0.00       1.83      10.79       0.19      10.98        2.57   544.72   0.816
  sub70                     13.45      11.20       0.00       7.51      14.65       0.88      15.52        3.55   494.81   0.630
  sub71                     13.45       0.00       0.00       0.99      10.58       0.09      10.67        2.52   389.24   0.793
  sub72                     13.45       0.00       0.00       0.89       8.56       0.05       8.61        1.75   189.18   0.640
  1                         13.45      15.11       0.00       1.37      16.56       4.63      21.19        4.98   484.42   0.742
  2                         13.45       0.00       0.00       3.02       3.21       1.96       5.17        2.07   340.45   0.384
  
  
  ****************************
  Subcatchment Washoff Summary
  ****************************
  
  ------------------------------------------------------------------------------------------
                                 COD            SS            TN            TP         NH4-N
  Subcatchment                    kg            kg            kg            kg            kg
  ------------------------------------------------------------------------------------------
  sub0                         2.670         5.197         0.046         0.004         0.022
  sub1                        11.241        22.423         0.210         0.015         0.101
  sub2                         6.894        13.384         0.145         0.010         0.067
  sub3                        16.924        32.573         0.350         0.024         0.161
  sub4                        25.772        51.904         0.510         0.031         0.245
  sub5                        25.778        50.682         0.460         0.035         0.223
  sub7                         5.751        11.638         0.108         0.007         0.052
  sub8                         8.581        17.755         0.171         0.010         0.082
  sub9                         7.353        15.005         0.142         0.009         0.068
  sub10                       21.202        42.223         0.389         0.028         0.188
  sub11                       20.657        41.614         0.386         0.026         0.187
  sub12                       17.724        35.094         0.321         0.024         0.155
  sub14                       15.732        31.800         0.298         0.020         0.144
  sub15                       20.231        39.321         0.389         0.028         0.182
  sub16                       13.129        25.518         0.249         0.019         0.117
  sub17                       12.049        23.208         0.222         0.017         0.105
  sub22                       62.582       119.432         1.186         0.090         0.554
  sub23                       36.683        72.439         0.776         0.051         0.357
  sub60                      243.520       456.962         4.842         0.298         2.321
  sub61                      302.151       564.434         5.627         0.386         2.710
  sub62                      313.722       596.076         6.119         0.388         2.938
  sub63                      223.275       410.850         4.468         0.314         2.075
  sub64                      305.877       553.773         5.626         0.410         2.687
  sub65                      313.037       569.066         5.795         0.415         2.772
  sub66                      176.068       321.340         3.608         0.236         1.687
  sub67                      466.222       877.505         8.365         0.616         4.045
  sub68                      332.037       626.413         6.347         0.429         3.034
  sub69                      298.258       568.561         5.590         0.393         2.674
  sub70                      502.897       962.303        10.037         0.699         4.710
  sub71                      206.745       396.330         4.242         0.246         2.030
  sub72                      164.385       293.107         3.069         0.210         1.476
  1                          349.075       671.606         7.102         0.495         3.297
  2                           42.749        75.577         1.214         0.073         0.518
  ------------------------------------------------------------------------------------------
  System                    4570.974      8595.115        88.408         6.057        41.983
  
  
  ******************
  Node Depth Summary
  ******************
  
  ---------------------------------------------------------------------------------
                                 Average  Maximum  Maximum  Time of Max    Reported
                                   Depth    Depth      HGL   Occurrence   Max Depth
  Node                 Type       Meters   Meters   Meters  days hr:min      Meters
  ---------------------------------------------------------------------------------
  WS02001211           JUNCTION     0.78     0.85     5.69     0  03:07        0.85
  WS02001212           JUNCTION     0.49     0.58     5.64     0  03:06        0.58
  WS02001213           JUNCTION     0.73     0.85     5.62     0  03:06        0.85
  WS02003069           JUNCTION     0.53     0.72     5.30     0  03:05        0.72
  WS02003072           JUNCTION     0.59     0.76     5.13     0  03:06        0.76
  WS02003073           JUNCTION     0.36     0.48     4.54     0  03:06        0.48
  WS02003060           JUNCTION     0.47     0.63     5.57     0  03:05        0.63
  WS02003066           JUNCTION     0.26     0.39     5.94     0  03:04        0.39
  WS02003059           JUNCTION     0.78     0.91     5.60     0  03:05        0.91
  WS02003067           JUNCTION     0.62     0.82     6.14     0  03:04        0.82
  WS02004401           JUNCTION     0.75     1.23     7.23     0  03:01        1.23
  WS02004402           JUNCTION     0.78     1.22     7.18     0  03:01        1.22
  WS02004403           JUNCTION     0.80     1.20     7.13     0  03:01        1.19
  WS02004404           JUNCTION     0.87     1.24     7.09     0  03:02        1.24
  WS02004406           JUNCTION     0.87     1.16     6.99     0  03:01        1.16
  WS02004409           JUNCTION     0.57     0.96     6.73     0  03:03        0.96
  WS02004410           JUNCTION     0.58     0.95     6.67     0  03:03        0.95
  WS02004411           JUNCTION     0.59     0.93     6.61     0  03:03        0.93
  WS02004412           JUNCTION     0.60     0.90     6.54     0  03:04        0.90
  WS02004413           JUNCTION     0.75     1.02     6.49     0  03:04        1.02
  WS02004405           JUNCTION     0.86     1.22     7.07     0  03:02        1.21
  WS02006109           JUNCTION     0.86     1.65     8.27     0  03:02        1.65
  WS02006110           JUNCTION     0.83     1.44     8.03     0  03:02        1.44
  WS02006111           JUNCTION     0.26     0.88     7.59     0  03:02        0.88
  WS02006112           JUNCTION     0.94     1.56     7.44     0  03:01        1.55
  WS02006113           JUNCTION     0.39     0.92     7.81     0  03:02        0.92
  WS02006115           JUNCTION     0.65     1.21     7.35     0  03:02        1.21
  WS02006116           JUNCTION     0.73     1.26     7.30     0  03:01        1.26
  WS02006230           JUNCTION     0.89     1.87     8.62     0  03:02        1.87
  WS02006231           JUNCTION     0.63     1.52     8.64     0  03:02        1.51
  WS02006232           JUNCTION     0.78     1.62     8.66     0  03:02        1.61
  WS02006234           JUNCTION     0.73     1.52     8.68     0  03:02        1.52
  WS02006235           JUNCTION     0.77     1.53     8.70     0  03:02        1.52
  WS02006238           JUNCTION     0.80     1.55     8.70     0  03:02        1.55
  WS02006240           JUNCTION     0.71     1.40     8.69     0  03:02        1.40
  WS02006242           JUNCTION     0.76     1.55     8.82     0  05:11        1.42
  WS02006243           JUNCTION     0.65     1.28     8.70     0  03:01        1.27
  WS02006245           JUNCTION     0.62     1.21     8.69     0  03:01        1.20
  WS02006247           JUNCTION     0.63     1.20     8.70     0  03:01        1.19
  WS02006248           JUNCTION     0.57     1.10     8.69     0  02:57        1.10
  WS02006249           JUNCTION     0.59     1.09     8.69     0  02:55        1.09
  WS02006239           JUNCTION     0.76     1.48     8.69     0  03:01        1.48
  WS02006251           JUNCTION     0.57     1.31     8.98     0  05:39        1.15
  WS02006252           JUNCTION     0.35     0.87     9.11     0  05:39        0.71
  WS02006253           JUNCTION     0.60     1.36     9.01     0  05:39        1.19
  WS02006256           JUNCTION     1.81     2.35     9.28     0  00:00        2.35
  WS02004138           JUNCTION     0.19     0.20     7.45     0  00:00        0.19
  WS02004139           JUNCTION     0.72     0.79     5.70     0  03:07        0.79
  WS02004407           JUNCTION     0.25     0.40     6.71     0  03:03        0.40
  WS02006228           JUNCTION     0.88     1.82     8.47     0  03:02        1.82
  WS02006229           JUNCTION     0.86     1.90     8.59     0  03:02        1.89
  WS02006280           JUNCTION     0.07     0.30     8.57     0  03:05        0.30
  WS02006284           JUNCTION     0.37     0.65     9.04     0  03:02        0.64
  WS02006287           JUNCTION     0.10     0.39     9.34     0  03:02        0.39
  WSF200               JUNCTION     0.25     0.44     5.67     0  03:04        0.44
  HS02004901           JUNCTION     0.13     0.38    10.20     0  03:01        0.37
  HS02004881           JUNCTION     0.01     0.05     9.08     0  03:01        0.05
  HS02004876           JUNCTION     0.04     0.16     9.19     0  03:01        0.16
  HS02004870           JUNCTION     0.02     0.09     9.38     0  03:01        0.09
  HS02004862           JUNCTION     0.02     0.11     9.49     0  03:01        0.11
  HS02004856           JUNCTION     0.08     0.15     9.58     0  03:01        0.15
  HS02004852           JUNCTION     0.01     0.07     9.59     0  03:02        0.07
  HS02004848           JUNCTION     0.01     0.07     9.67     0  03:01        0.07
  HS02004842           JUNCTION     0.34     0.40     9.67     0  03:01        0.40
  HS02004837           JUNCTION     0.03     0.09     9.67     0  03:01        0.09
  HS02004830           JUNCTION     0.04     0.10     9.57     0  03:01        0.10
  HS02004824           JUNCTION     0.02     0.13     9.53     0  03:02        0.13
  HS02004817           JUNCTION     0.44     0.69     9.54     0  03:02        0.69
  HS02004807           JUNCTION     0.13     0.36     9.53     0  03:02        0.36
  HS02004802           JUNCTION     0.17     0.39     9.52     0  03:02        0.39
  HS02004799           JUNCTION     0.12     0.46     9.68     0  03:01        0.46
  HS02004792           JUNCTION     0.03     0.22     9.74     0  03:01        0.21
  HS02004788           JUNCTION     0.03     0.16    10.05     0  03:02        0.16
  HS02004785           JUNCTION     0.05     0.25    10.15     0  03:02        0.25
  HS02004777           JUNCTION     0.15     0.39    10.19     0  03:01        0.39
  HS02004770           JUNCTION     0.12     0.37    10.20     0  03:01        0.36
  HS02004480           JUNCTION     0.08     0.38     9.62     0  03:01        0.38
  HS02004479           JUNCTION     0.12     0.42     9.62     0  03:01        0.42
  HS02004478           JUNCTION     0.06     0.28     9.50     0  03:01        0.28
  YS02001745           JUNCTION     0.75     0.95     8.47     0  03:01        0.95
  YS02001748           JUNCTION     1.15     1.55     8.63     0  02:32        1.39
  YS02001751           JUNCTION     1.33     1.57     8.45     0  03:00        1.57
  YS02001754           JUNCTION     1.59     1.84     8.45     0  03:00        1.83
  YS02001762           JUNCTION     1.79     2.04     8.44     0  02:56        2.03
  YS02001765           JUNCTION     1.74     1.99     8.44     0  02:59        1.98
  YS02001767           JUNCTION     1.71     1.95     8.44     0  02:59        1.94
  YS02001770           JUNCTION     1.70     1.94     8.43     0  03:00        1.93
  YS02001774           JUNCTION     1.77     1.99     8.41     0  03:01        1.98
  YS02001779           JUNCTION     1.51     1.68     8.37     0  02:40        1.68
  YS02001882           JUNCTION     0.57     1.63     8.35     0  03:00        1.63
  YS02001884           JUNCTION     0.67     1.74     8.36     0  03:00        1.73
  YS02001759           JUNCTION     1.82     2.08     8.45     0  02:57        2.07
  YS02001887           JUNCTION     0.75     1.81     8.35     0  02:58        1.81
  YS02001890           JUNCTION     0.78     1.81     8.32     0  02:50        1.81
  YS02001898           JUNCTION     0.54     1.56     8.30     0  02:58        1.56
  YS02001901           JUNCTION     0.66     1.68     8.29     0  02:57        1.67
  YS02001904           JUNCTION     0.64     1.64     8.27     0  02:56        1.63
  YS02001907           JUNCTION     0.97     1.96     8.25     0  02:50        1.96
  YS02001910           JUNCTION     0.76     1.78     8.29     0  02:51        1.77
  YS02001915           JUNCTION     0.56     1.60     8.32     0  02:51        1.59
  YS02001918           JUNCTION     0.30     1.28     8.35     0  02:51        1.27
  YS02001619           JUNCTION     1.30     1.53     8.46     0  02:32        1.48
  YS02001629           JUNCTION     1.65     1.85     8.40     0  02:32        1.84
  YS02001641           JUNCTION     1.75     1.93     8.37     0  02:58        1.93
  YS02001644           JUNCTION     1.75     1.92     8.35     0  02:39        1.92
  YS02001652           JUNCTION     1.60     2.16     8.76     0  02:48        1.89
  YS02001655           JUNCTION     1.36     2.20     9.05     0  02:48        1.71
  YS02001920           JUNCTION     0.41     1.37     8.37     0  02:51        1.34
  YS02001923           JUNCTION     0.24     1.12     8.38     0  02:51        1.10
  YS02001926           JUNCTION     0.29     0.94     8.39     0  02:51        0.94
  YS02001929           JUNCTION     0.17     0.71     8.40     0  02:52        0.71
  YS02001658           JUNCTION     1.09     2.21     9.35     0  02:48        1.55
  YS02001661           JUNCTION     0.86     2.44     9.85     0  02:48        1.52
  YS02001664           JUNCTION     0.38     0.58     8.50     0  02:42        0.56
  YS02001622           JUNCTION     1.32     1.53     8.44     0  02:32        1.50
  YS02001633           JUNCTION     1.74     1.95     8.41     0  02:57        1.94
  YS02001649           JUNCTION     1.80     2.05     8.44     0  02:43        2.05
  YS02001757           JUNCTION     1.92     2.17     8.44     0  03:00        2.16
  YS02001895           JUNCTION     0.54     1.57     8.31     0  02:52        1.56
  YS02001625           JUNCTION     1.60     1.78     8.38     0  02:32        1.78
  YS02163301           JUNCTION     1.68     1.88     8.40     0  02:56        1.87
  YS02163601           JUNCTION     1.79     1.99     8.39     0  02:58        1.98
  YS02164001           JUNCTION     1.73     1.92     8.38     0  02:40        1.92
  YS02001647           JUNCTION     1.58     1.81     8.42     0  02:45        1.80
  YSB1154              JUNCTION     0.26     0.57     9.62     0  03:01        0.57
  YSB6556              JUNCTION     0.15     0.45     9.62     0  03:02        0.45
  YSB1174              JUNCTION     0.21     0.52     9.62     0  03:01        0.51
  YSB1171              JUNCTION     0.41     0.72     9.62     0  03:01        0.72
  YS02006553           JUNCTION     0.97     2.06     8.35     0  02:58        1.97
  YS02006561           JUNCTION     0.32     1.48     8.14     0  02:58        1.12
  YS02006556           JUNCTION     0.94     2.16     8.47     0  02:58        1.95
  YS02006558           JUNCTION     0.98     2.23     8.50     0  02:58        2.00
  YS02001783           JUNCTION     0.54     1.98     8.12     0  02:58        1.51
  YS02001784           JUNCTION     0.55     2.06     8.12     0  02:58        1.46
  YS02001786           JUNCTION     0.49     2.21     8.24     0  02:58        1.30
  YS02001788           JUNCTION     0.41     2.06     8.04     0  02:58        1.16
  YS02001790           JUNCTION     0.52     1.96     7.60     0  02:58        1.31
  YS02001791           JUNCTION     0.47     1.68     7.15     0  02:58        1.27
  YS02001793           JUNCTION     0.63     1.91     6.74     0  06:44        1.80
  WSC                  OUTFALL      0.36     0.48     1.15     0  03:07        0.48
  JK-storage           STORAGE      2.59     5.80     6.60     0  02:58        5.80
  CC-storage           STORAGE      1.18     1.42     8.42     0  03:13        1.42
  XR-storage           STORAGE      6.64     7.72     5.72     0  03:02        7.72
  
  
  *******************
  Node Inflow Summary
  *******************
  
  -------------------------------------------------------------------------------------------------
                                  Maximum  Maximum                  Lateral       Total        Flow
                                  Lateral    Total  Time of Max      Inflow      Inflow     Balance
                                   Inflow   Inflow   Occurrence      Volume      Volume       Error
  Node                 Type           LPS      LPS  days hr:min    10^6 ltr    10^6 ltr     Percent
  -------------------------------------------------------------------------------------------------
  WS02001211           JUNCTION      7.35   390.29     0  03:16       0.207        10.2       0.404
  WS02001212           JUNCTION      0.00   393.24     0  03:16           0        10.2       0.247
  WS02001213           JUNCTION      0.00   395.77     0  03:16           0        10.1       0.293
  WS02003069           JUNCTION      0.32  1333.53     0  03:05     0.00902        20.7       0.190
  WS02003072           JUNCTION      0.00  1333.23     0  03:06           0        20.7       0.222
  WS02003073           JUNCTION      1.82  1335.12     0  03:06      0.0514        20.7       0.259
  WS02003060           JUNCTION     16.53  1333.42     0  03:05       0.466        20.8       0.178
  WS02003066           JUNCTION      0.00   939.00     0  03:04           0        10.2       0.054
  WS02003059           JUNCTION      0.00   398.69     0  03:15           0        10.1       0.412
  WS02003067           JUNCTION      0.00   938.60     0  03:04           0        10.3       0.106
  WS02004401           JUNCTION      0.00   939.29     0  03:02           0        10.5       0.236
  WS02004402           JUNCTION      0.00   939.33     0  03:02           0        10.5       0.219
  WS02004403           JUNCTION      0.00   939.36     0  03:02           0        10.5       0.196
  WS02004404           JUNCTION      0.16   939.60     0  03:03     0.00457        10.5       0.143
  WS02004406           JUNCTION      0.00   939.88     0  03:03           0        10.4       0.348
  WS02004409           JUNCTION      0.00   939.78     0  03:03           0        10.4       0.204
  WS02004410           JUNCTION      0.00   938.91     0  03:03           0        10.4       0.225
  WS02004411           JUNCTION      0.00   938.49     0  03:03           0        10.3       0.226
  WS02004412           JUNCTION      0.00   938.23     0  03:03           0        10.3       0.237
  WS02004413           JUNCTION      0.00   938.41     0  03:04           0        10.3       0.340
  WS02004405           JUNCTION      0.04   939.76     0  03:03     0.00107        10.5       0.216
  WS02006109           JUNCTION      1.23   914.78     0  03:02      0.0347        10.6       0.212
  WS02006110           JUNCTION      0.00   914.88     0  03:02           0        10.6       0.210
  WS02006111           JUNCTION      0.00   915.25     0  03:03           0        10.5       0.046
  WS02006112           JUNCTION     30.67   939.01     0  03:02      0.0853        10.6       0.290
  WS02006113           JUNCTION      0.00   914.95     0  03:02           0        10.5       0.120
  WS02006115           JUNCTION      0.00   939.02     0  03:02           0        10.6       0.235
  WS02006116           JUNCTION      0.00   939.19     0  03:02           0        10.6       0.225
  WS02006230           JUNCTION     10.28   533.09     0  07:00        0.29        8.17       0.211
  WS02006231           JUNCTION      0.00   522.66     0  07:02           0        7.89       0.169
  WS02006232           JUNCTION      0.00   523.07     0  07:00           0        7.91       0.231
  WS02006234           JUNCTION      0.00   524.13     0  07:00           0        7.92       0.141
  WS02006235           JUNCTION      0.00   525.63     0  07:00           0        7.97       0.150
  WS02006238           JUNCTION      0.00   348.81     0  06:10           0        4.42       0.192
  WS02006240           JUNCTION      0.00   347.30     0  05:10           0         4.4       0.374
  WS02006242           JUNCTION      0.00   360.37     0  05:11           0        4.41       0.423
  WS02006243           JUNCTION      0.00   367.72     0  05:11           0        4.41       0.286
  WS02006245           JUNCTION      0.00   371.86     0  05:10           0        4.42       0.316
  WS02006247           JUNCTION      0.00   376.16     0  05:10           0        4.43       0.224
  WS02006248           JUNCTION      0.00   380.51     0  05:10           0        4.44       0.161
  WS02006249           JUNCTION      0.00   422.18     0  05:39           0        4.84       0.261
  WS02006239           JUNCTION      0.00   343.54     0  06:10           0        4.41       0.223
  WS02006251           JUNCTION      0.08   413.87     0  03:40     0.00217        4.89       0.217
  WS02006252           JUNCTION      0.00   400.00     0  04:20           0        4.38       0.008
  WS02006253           JUNCTION      3.75   143.71     0  03:01      0.0103       0.517       1.008
  WS02006256           JUNCTION      0.00   983.00     0  00:00           0        10.6      -0.008
  WS02004138           JUNCTION      0.00   380.00     0  00:00           0          10       0.063
  WS02004139           JUNCTION      0.32   396.51     0  00:00     0.00905          10       0.458
  WS02004407           JUNCTION      0.00   939.96     0  03:03           0        10.4       0.091
  WS02006228           JUNCTION      0.00   913.34     0  03:02           0        10.6       0.162
  WS02006229           JUNCTION      0.00   916.79     0  03:01           0        10.6       0.131
  WS02006280           JUNCTION      0.00   680.14     0  03:02           0        2.43       0.012
  WS02006284           JUNCTION      0.10   679.00     0  03:02      0.0027        2.43       0.045
  WS02006287           JUNCTION      0.00   677.64     0  03:02           0        2.43       0.032
  WSF200               JUNCTION      0.00   939.13     0  03:04           0        10.2       0.055
  HS02004901           JUNCTION     37.63    37.63     0  03:01       0.103       0.103       1.743
  HS02004881           JUNCTION     14.26   140.52     0  03:01      0.0422       0.463       0.105
  HS02004876           JUNCTION     25.66   127.63     0  03:01      0.0814       0.422       0.129
  HS02004870           JUNCTION     26.26   103.57     0  03:01      0.0799        0.34       0.036
  HS02004862           JUNCTION     25.49    79.36     0  03:01      0.0888       0.261       0.068
  HS02004856           JUNCTION     19.64    55.41     0  03:01      0.0601       0.173       0.841
  HS02004852           JUNCTION      0.00    37.84     0  03:01           0       0.113       0.053
  HS02004848           JUNCTION     55.75    55.75     0  03:01       0.197       0.197       0.029
  HS02004842           JUNCTION      0.00    16.84     0  03:01           0       0.097      15.492
  HS02004837           JUNCTION     50.35    65.69     0  03:01       0.318       0.402       0.205
  HS02004830           JUNCTION      0.15    64.79     0  03:01     0.00423       0.392       0.316
  HS02004824           JUNCTION     65.57   128.44     0  03:01       0.251       0.642       0.086
  HS02004817           JUNCTION      0.60   124.46     0  03:01      0.0169       0.658       2.599
  HS02004807           JUNCTION     48.45   165.80     0  03:01       0.147       0.788       0.555
  HS02004802           JUNCTION      0.00   165.30     0  03:04           0       0.785       0.508
  HS02004799           JUNCTION     38.67   446.01     0  03:01       0.119        1.42       0.191
  HS02004792           JUNCTION    184.82   411.77     0  03:01        0.54         1.3       0.034
  HS02004788           JUNCTION     58.68   233.42     0  03:01       0.219       0.758       0.054
  HS02004785           JUNCTION      0.15   182.19     0  03:01     0.00423        0.54       0.093
  HS02004777           JUNCTION      0.03   185.00     0  03:01    0.000846       0.541       0.972
  HS02004770           JUNCTION    154.22   188.93     0  03:01       0.441       0.542       0.579
  HS02004480           JUNCTION      0.00   517.18     0  03:01           0        1.66       0.068
  HS02004479           JUNCTION      0.00    75.41     0  03:02           0       0.258       0.287
  HS02004478           JUNCTION      0.00   677.07     0  03:02           0        2.43       0.010
  YS02001745           JUNCTION    438.14   438.14     0  03:01        3.01        3.02       0.374
  YS02001748           JUNCTION      0.04   576.89     0  02:32     0.00127        3.01       0.722
  YS02001751           JUNCTION      0.01   442.82     0  03:01     0.00031        2.98       0.787
  YS02001754           JUNCTION      0.26   443.05     0  03:01     0.00733        2.96       0.851
  YS02001762           JUNCTION      0.00   315.33     0  02:42           0        2.05       1.043
  YS02001765           JUNCTION      0.00   315.74     0  02:43           0        2.06       1.207
  YS02001767           JUNCTION      0.54   315.83     0  02:42      0.0151        2.08       1.759
  YS02001770           JUNCTION    552.50   675.11     0  03:02        3.37        3.81       0.837
  YS02001774           JUNCTION      0.00   675.14     0  03:02           0        2.17       1.183
  YS02001779           JUNCTION      0.01   675.44     0  03:02    0.000141        2.14       0.730
  YS02001882           JUNCTION      0.00    15.46     0  04:11           0      0.0163      16.308
  YS02001884           JUNCTION      0.00    21.64     0  04:11           0      0.0533      13.158
  YS02001759           JUNCTION    536.49   620.65     0  02:43        3.11        4.68       0.490
  YS02001887           JUNCTION    679.97   680.00     0  03:01        3.56         3.6       0.238
  YS02001890           JUNCTION      0.00   680.91     0  03:01           0        3.55       0.261
  YS02001898           JUNCTION      0.00   518.13     0  02:57           0        3.45       0.092
  YS02001901           JUNCTION      0.00   518.57     0  03:01           0        3.45       0.205
  YS02001904           JUNCTION      0.00   518.10     0  03:02           0        3.44       0.184
  YS02001907           JUNCTION      0.00  1111.46     0  03:01           0        7.77       0.322
  YS02001910           JUNCTION      0.00   594.37     0  03:01           0        4.34       0.272
  YS02001915           JUNCTION    389.26   593.88     0  03:01        2.52        4.35       0.142
  YS02001918           JUNCTION      0.00   257.77     0  02:52           0        1.84       0.106
  YS02001619           JUNCTION    380.66   380.66     0  03:01        2.51        2.51       0.485
  YS02001629           JUNCTION      0.00   195.76     0  02:39           0        1.59       1.858
  YS02001641           JUNCTION      0.00   413.27     0  02:40           0        4.45       0.485
  YS02001644           JUNCTION    416.76  1526.57     0  03:01         2.9        10.6       0.251
  YS02001652           JUNCTION      0.00   500.14     0  03:01           0        2.63       0.901
  YS02001655           JUNCTION      0.15   500.63     0  03:01     0.00434        2.65       0.915
  YS02001920           JUNCTION      2.87   257.99     0  02:52      0.0809        1.84       0.163
  YS02001923           JUNCTION      0.04   224.60     0  02:52     0.00106        1.75       0.051
  YS02001926           JUNCTION      0.05   199.28     0  03:02     0.00147        1.75       0.199
  YS02001929           JUNCTION    189.18   189.18     0  03:01        1.75        1.75       0.036
  YS02001658           JUNCTION      0.00   606.05     0  02:29           0        2.69       0.797
  YS02001661           JUNCTION      0.00   672.09     0  02:43           0        3.11      -0.168
  YS02001664           JUNCTION    492.63   492.63     0  03:01        2.67         3.1       0.219
  YS02001622           JUNCTION      0.00   381.15     0  03:01           0         2.5       1.295
  YS02001633           JUNCTION    423.29   423.29     0  03:01        2.99        4.52       0.721
  YS02001649           JUNCTION      0.00   874.82     0  02:39           0        6.04       0.615
  YS02001757           JUNCTION      0.00  1678.43     0  02:40           0        9.83       0.946
  YS02001895           JUNCTION      0.00   518.41     0  02:58           0        3.45       0.151
  YS02001625           JUNCTION      0.00   407.64     0  03:01           0        2.47       1.593
  YS02163301           JUNCTION      0.00   203.50     0  02:33           0        1.57       1.571
  YS02163601           JUNCTION      0.11   414.50     0  02:40      0.0031        4.48       0.684
  YS02164001           JUNCTION      0.00   413.76     0  02:40           0        4.46       0.462
  YS02001647           JUNCTION      0.00   728.96     0  03:10           0        5.19       0.551
  YSB1154              JUNCTION     44.76    44.76     0  03:01       0.144       0.144       1.019
  YSB6556              JUNCTION      0.00    43.27     0  03:01           0       0.145       0.869
  YSB1174              JUNCTION     38.10    38.10     0  03:01       0.106       0.107       1.223
  YSB1171              JUNCTION      0.00    76.91     0  03:01           0       0.257       2.527
  YS02006553           JUNCTION      0.00   719.74     0  02:51           0        6.82       0.230
  YS02006561           JUNCTION      0.00  1147.75     0  02:58           0          10       0.009
  YS02006556           JUNCTION      0.00   719.45     0  02:51           0        6.83       0.171
  YS02006558           JUNCTION    587.14  1148.00     0  02:57        3.28        10.1       0.049
  YS02001783           JUNCTION      0.00  1147.87     0  02:58           0          10       0.024
  YS02001784           JUNCTION      1.06  1150.45     0  02:58      0.0299        10.1       0.037
  YS02001786           JUNCTION      0.06  1148.97     0  02:58     0.00159        10.1       0.037
  YS02001788           JUNCTION      0.07  1151.30     0  02:58       0.002        10.1       0.019
  YS02001790           JUNCTION      0.15  1162.46     0  02:57     0.00437        10.1       0.022
  YS02001791           JUNCTION      0.00  1263.58     0  02:52           0        10.1       0.006
  YS02001793           JUNCTION      0.00  1223.40     0  02:52           0        10.1      -0.029
  WSC                  OUTFALL       0.00  1335.30     0  03:07           0        20.6       0.000
  JK-storage           STORAGE       0.00  1222.39     0  02:52           0        10.2     -12.345
  CC-storage           STORAGE       0.00  1679.16     0  02:40           0        8.16       0.796
  XR-storage           STORAGE    1024.87  1024.87     0  03:01        12.7        13.3      -0.004
  
  
  **********************
  Node Surcharge Summary
  **********************
  
  Surcharging occurs when water rises above the top of the highest conduit.
  ---------------------------------------------------------------------
                                               Max. Height   Min. Depth
                                   Hours       Above Crown    Below Rim
  Node                 Type      Surcharged         Meters       Meters
  ---------------------------------------------------------------------
  WS02004401           JUNCTION        0.53          0.232        1.428
  WS02004402           JUNCTION        0.58          0.222        1.518
  WS02004403           JUNCTION        0.59          0.198        1.832
  WS02004404           JUNCTION        0.99          0.243        2.537
  WS02004406           JUNCTION        0.76          0.162        2.288
  WS02004413           JUNCTION        0.19          0.023        2.177
  WS02004405           JUNCTION        0.81          0.217        2.583
  WS02006109           JUNCTION        4.43          0.830        0.990
  WS02006110           JUNCTION        2.54          0.534        1.316
  WS02006111           JUNCTION        0.13          0.073        1.797
  WS02006112           JUNCTION        2.99          0.557        1.123
  WS02006113           JUNCTION        0.16          0.122        1.808
  WS02006115           JUNCTION        0.37          0.205        2.045
  WS02006116           JUNCTION        0.39          0.199        2.091
  WS02006230           JUNCTION        2.21          0.793        0.777
  WS02006231           JUNCTION        2.68          0.805        0.725
  WS02006232           JUNCTION        4.07          0.918        0.562
  WS02006234           JUNCTION        3.68          0.802        0.438
  WS02006235           JUNCTION        3.81          0.824        0.466
  WS02006238           JUNCTION        3.85          0.834        0.596
  WS02006240           JUNCTION        3.52          0.688        0.702
  WS02006242           JUNCTION        3.57          0.820        0.000
  WS02006243           JUNCTION        2.65          0.567        0.203
  WS02006245           JUNCTION        2.50          0.500        0.350
  WS02006247           JUNCTION        2.51          0.487        0.273
  WS02006248           JUNCTION        2.31          0.380        0.000
  WS02006249           JUNCTION        2.38          0.390        0.000
  WS02006239           JUNCTION        3.63          0.744        0.546
  WS02006251           JUNCTION        1.37          0.282        0.898
  WS02006252           JUNCTION        2.50          0.466        0.634
  WS02006253           JUNCTION        1.42          0.323        2.157
  WS02006256           JUNCTION        6.67          2.050        0.000
  WS02006228           JUNCTION        4.41          0.994        1.206
  YS02001748           JUNCTION        5.22          0.471        0.719
  YS02001751           JUNCTION        5.37          0.574        0.626
  YS02001754           JUNCTION        5.57          0.787        0.363
  YS02001762           JUNCTION        5.75          1.044        0.106
  YS02001765           JUNCTION        5.72          0.993        0.107
  YS02001767           JUNCTION        5.69          0.953        0.077
  YS02001770           JUNCTION        5.67          0.906        0.014
  YS02001774           JUNCTION        5.74          0.988        0.062
  YS02001779           JUNCTION        5.56          0.680        0.000
  YS02001882           JUNCTION        1.06          0.634        0.196
  YS02001884           JUNCTION        1.09          0.678        0.192
  YS02001759           JUNCTION        5.78          1.082        0.128
  YS02001887           JUNCTION        1.17          0.763        0.187
  YS02001890           JUNCTION        1.19          0.760        0.000
  YS02001898           JUNCTION        1.01          0.533        0.207
  YS02001901           JUNCTION        1.12          0.676        0.194
  YS02001904           JUNCTION        1.10          0.640        0.210
  YS02001907           JUNCTION        1.88          0.950        0.000
  YS02001910           JUNCTION        1.24          0.782        0.318
  YS02001915           JUNCTION        1.04          0.603        0.397
  YS02001918           JUNCTION        0.85          0.284        0.526
  YS02001619           JUNCTION        5.37          0.530        0.080
  YS02001629           JUNCTION        5.38          0.470        0.000
  YS02001641           JUNCTION        5.73          0.935        0.165
  YS02001644           JUNCTION        5.73          0.920        0.000
  YS02001652           JUNCTION        5.61          1.130        0.000
  YS02001655           JUNCTION        5.39          1.200        0.000
  YS02001920           JUNCTION        0.88          0.366        0.774
  YS02001658           JUNCTION        5.25          1.210        0.090
  YS02001661           JUNCTION        0.14          1.372        0.018
  YS02001622           JUNCTION        5.41          0.531        0.089
  YS02001633           JUNCTION        5.71          0.931        0.129
  YS02001649           JUNCTION        5.75          1.050        0.000
  YS02001757           JUNCTION        5.86          1.174        0.036
  YS02001895           JUNCTION        1.03          0.567        0.183
  YS02001625           JUNCTION        5.64          0.780        0.000
  YS02163301           JUNCTION        5.69          0.882        0.148
  YS02163601           JUNCTION        5.75          0.993        0.087
  YS02164001           JUNCTION        5.72          0.918        0.182
  YS02001647           JUNCTION        5.62          0.808        0.092
  YS02006553           JUNCTION        1.96          1.063        0.127
  YS02006561           JUNCTION        0.86          0.679        0.471
  YS02006556           JUNCTION        1.47          1.116        0.234
  YS02006558           JUNCTION        1.43          1.134        0.266
  YS02001783           JUNCTION        1.18          1.182        0.418
  YS02001784           JUNCTION        1.14          1.255        0.235
  YS02001786           JUNCTION        0.97          1.411        0.019
  YS02001788           JUNCTION        0.76          1.263        0.217
  YS02001790           JUNCTION        1.41          1.157        0.000
  YS02001791           JUNCTION        1.49          0.883        1.037
  YS02001793           JUNCTION        1.75          0.906        1.694
  
  
  *********************
  Node Flooding Summary
  *********************
  
  Flooding refers to all water that overflows a node, whether it ponds or not.
  --------------------------------------------------------------------------
                                                             Total   Maximum
                                 Maximum   Time of Max       Flood    Ponded
                        Hours       Rate    Occurrence      Volume     Depth
  Node                 Flooded       LPS   days hr:min    10^6 ltr    Meters
  --------------------------------------------------------------------------
  WS02006242              0.01     22.15      0  05:11       0.000     0.000
  WS02006248              0.08     15.69      0  03:03       0.002     0.000
  WS02006249              1.30    258.91      0  03:02       0.385     0.000
  WS02006256              4.39    978.40      0  00:00       7.016     0.000
  YS02001779              2.81    675.41      0  03:02       2.119     0.000
  YS02001890              0.34    162.97      0  03:01       0.085     0.000
  YS02001907              0.72    727.87      0  03:01       0.933     0.000
  YS02001629              0.01     14.02      0  02:32       0.000     0.000
  YS02001644              4.23   1526.54      0  03:01       8.694     0.000
  YS02001652              0.01      9.01      0  02:48       0.000     0.000
  YS02001655              0.01     19.83      0  02:48       0.000     0.000
  YS02001649              0.02     39.80      0  02:43       0.001     0.000
  YS02001625              1.40    407.19      0  03:01       0.854     0.000
  YS02001790              0.01    108.48      0  06:44       0.000     0.000
  JK-storage              0.76    673.53      0  03:00       1.060     0.000
  XR-storage              3.41    627.70      0  03:02       2.500     0.000
  
  
  **********************
  Storage Volume Summary
  **********************
  
  --------------------------------------------------------------------------------------------------
                         Average     Avg  Evap Exfil       Maximum     Max    Time of Max    Maximum
                          Volume    Pcnt  Pcnt  Pcnt        Volume    Pcnt     Occurrence    Outflow
  Storage Unit           1000 m3    Full  Loss  Loss       1000 m3    Full    days hr:min        LPS
  --------------------------------------------------------------------------------------------------
  JK-storage               0.130      45     0     0         0.291     100       0  02:58     983.00
  CC-storage               3.283      21     0     0         3.966      25       0  03:13     400.00
  XR-storage               0.797      86     0     0         0.926     100       0  03:02     380.00
  
  
  ***********************
  Outfall Loading Summary
  ***********************
  
  ---------------------------------------------------------------------------------------------------------------------------------
                         Flow       Avg       Max       Total         Total         Total         Total         Total         Total
                         Freq      Flow      Flow      Volume           COD            SS            TN            TP         NH4-N
  Outfall Node           Pcnt       LPS       LPS    10^6 ltr            kg            kg            kg            kg            kg
  ---------------------------------------------------------------------------------------------------------------------------------
  WSC                   99.98    827.12   1335.30      20.645      2449.490      4244.335       151.116        17.664        91.140
  ---------------------------------------------------------------------------------------------------------------------------------
  System                99.98    827.12   1335.30      20.645      2449.490      4244.335       151.116        17.664        91.140
  
  
  ********************
  Link Flow Summary
  ********************
  
  -----------------------------------------------------------------------------
                                 Maximum  Time of Max   Maximum    Max/    Max/
                                  |Flow|   Occurrence   |Veloc|    Full    Full
  Link                 Type          LPS  days hr:min     m/sec    Flow   Depth
  -----------------------------------------------------------------------------
  WS02003066WSF200     CONDUIT    939.13     0  03:04      3.00    0.16    0.32
  WS02006287WS02006284 CONDUIT    678.90     0  03:02      2.38    0.31    0.39
  WS02006284WS02006280 CONDUIT    680.14     0  03:02      2.62    0.28    0.37
  WS02006280WS02006229 CONDUIT    680.20     0  03:02      3.86    0.15    0.50
  WS02006229WS02006228 CONDUIT    913.34     0  03:02      1.82    3.03    1.00
  WS02006256WS02006235 CONDUIT    288.60     0  00:00      4.23    3.05    1.00
  WS02006253WS02006251 CONDUIT    143.99     0  03:01      0.56    0.43    1.00
  WS02006252WS02006251 CONDUIT    400.91     0  05:58      3.19    1.47    1.00
  WS02006251WS02006249 CONDUIT    422.18     0  05:39      1.13    1.22    1.00
  WS02006249WS02006248 CONDUIT    380.51     0  05:10      1.18    2.08    1.00
  WS02006248WS02006247 CONDUIT    376.16     0  05:10      1.15    0.82    1.00
  WS02006247WS02006245 CONDUIT    371.86     0  05:10      1.13    2.95    1.00
  WS02006245WS02006243 CONDUIT    367.72     0  05:11      1.16    1.09    1.00
  WS02006243WS02006242 CONDUIT    360.37     0  05:11      1.05    0.77    1.00
  WS02006242WS02006240 CONDUIT    347.30     0  05:10      0.99    1.38    1.00
  WS02006240WS02006239 CONDUIT    343.54     0  06:10      1.03    1.08    1.00
  WS02006239WS02006238 CONDUIT    348.81     0  06:10      0.94    1.12    1.00
  WS02006238WS02006235 CONDUIT    351.07     0  06:10      1.46    0.78    1.00
  WS02006235WS02006234 CONDUIT    524.13     0  07:00      1.36    5.53    1.00
  WS02006234WS02006232 CONDUIT    523.07     0  07:00      1.39    1.06    1.00
  WS02006232WS02006231 CONDUIT    522.66     0  07:02      1.36    1.10    1.00
  WS02006231WS02006230 CONDUIT    522.81     0  07:00      1.39    7.93    1.00
  WS02006230WS02006229 CONDUIT    535.60     0  07:00      1.39   11.92    1.00
  WS02006228WS02006109 CONDUIT    913.55     0  03:02      1.82    3.99    1.00
  WS02006116WS02004401 CONDUIT    939.29     0  03:02      1.20    1.29    1.00
  WS02006115WS02006116 CONDUIT    939.19     0  03:02      1.20    1.21    1.00
  WS02006113WS02006111 CONDUIT    915.25     0  03:03      2.59    1.10    1.00
  WS02006112WS02006115 CONDUIT    939.02     0  03:02      1.20    0.55    1.00
  WS02006111WS02006112 CONDUIT    915.71     0  03:03      1.82    0.44    1.00
  WS02006110WS02006113 CONDUIT    914.95     0  03:02      1.82    0.83    1.00
  WS02006109WS02006110 CONDUIT    914.88     0  03:02      1.82    1.76    1.00
  WS02004411WS02004412 CONDUIT    938.23     0  03:03      1.24    1.33    0.92
  WS02004401WS02004402 CONDUIT    939.33     0  03:02      1.20    1.13    1.00
  WS02004413WS02003067 CONDUIT    938.60     0  03:04      1.55    0.40    0.72
  WS02004412WS02004413 CONDUIT    938.41     0  03:04      1.22    0.63    0.95
  WS02004410WS02004411 CONDUIT    938.49     0  03:03      1.23    1.28    0.94
  WS02004409WS02004410 CONDUIT    938.91     0  03:03      1.22    1.21    0.95
  WS02004407WS02004409 CONDUIT    939.78     0  03:03      1.67    0.33    0.68
  WS02004406WS02004407 CONDUIT    939.96     0  03:03      1.60    0.42    0.70
  WS02004405WS02004406 CONDUIT    939.88     0  03:03      1.20    1.85    1.00
  WS02004404WS02004405 CONDUIT    939.72     0  03:03      1.20    9.21    1.00
  WS02004403WS02004404 CONDUIT    939.44     0  03:03      1.20    0.68    1.00
  WS02004402WS02004403 CONDUIT    939.36     0  03:02      1.20    1.35    1.00
  WS02004139WS02001211 CONDUIT    382.95     0  03:16      0.90    0.48    0.64
  WS02004138WS02004139 CONDUIT    396.19     0  00:00      3.65    0.08    0.47
  WS02003067WS02003066 CONDUIT    939.00     0  03:04      1.65    0.30    0.50
  WS02001213WS02003059 CONDUIT    398.69     0  03:15      0.88    0.66    0.87
  WS02001212WS02001213 CONDUIT    395.77     0  03:16      1.32    0.61    0.56
  WS02001211WS02001212 CONDUIT    393.24     0  03:16      0.78    0.30    0.71
  WS02003072WS02003073 CONDUIT   1333.30     0  03:06      1.96    2.88    0.58
  WS02003069WS02003072 CONDUIT   1333.23     0  03:06      1.82    0.64    0.62
  WS02003060WS02003069 CONDUIT   1333.21     0  03:05      2.03    0.52    0.56
  WS02003059WS02003060 CONDUIT    403.17     0  04:49      0.95    0.26    0.77
  HS02004901HS02004770 CONDUIT     37.22     0  03:01      0.10    0.14    0.53
  HS02004876HS02004881 CONDUIT    127.63     0  03:01      1.21    1.36    0.15
  HS02004870HS02004876 CONDUIT    103.09     0  03:01      0.82    0.07    0.18
  HS02004842HS02004848 CONDUIT     16.84     0  03:01      0.07    0.01    0.33
  HS02004837HS02004842 CONDUIT     17.90     0  03:03      0.42    0.01    0.35
  HS02004830HS02004837 CONDUIT     64.64     0  03:01      0.67    0.06    0.14
  HS02004824HS02004830 CONDUIT     64.12     0  03:01      0.62    0.08    0.16
  HS02004817HS02004824 CONDUIT    123.86     0  03:01      0.31    0.06    0.58
  HS02004770HS02004777 CONDUIT    184.97     0  03:01      0.49    0.34    0.54
  HS02004799HS02004480 CONDUIT    444.31     0  03:01      1.07    0.56    0.60
  HS02004792HS02004799 CONDUIT    408.42     0  03:01      1.20    0.25    0.49
  HS02004788HS02004792 CONDUIT    232.95     0  03:02      1.28    0.15    0.26
  HS02004785HS02004788 CONDUIT    181.77     0  03:02      0.91    1.37    0.29
  HS02004777HS02004785 CONDUIT    182.04     0  03:01      0.57    0.22    0.45
  HS02004480HS02004478 CONDUIT    517.32     0  03:01      1.55    2.18    0.48
  HS02004479HS02004480 CONDUIT     77.27     0  03:02      0.30    0.07    0.57
  HS02004862HS02004870 CONDUIT     79.02     0  03:01      0.80    0.09    0.14
  HS02004848HS02004852 CONDUIT     37.84     0  03:01      0.53    0.04    0.10
  HS02004856HS02004862 CONDUIT     54.77     0  03:01      0.59    0.05    0.13
  HS02004852HS02004856 CONDUIT     37.76     0  03:02      0.34    0.04    0.16
  HS02004802HS02004478 CONDUIT    170.15     0  03:04      0.54    0.15    0.48
  HS02004478WS02006287 CONDUIT    677.64     0  03:02      2.11    0.19    0.36
  HS02004817HS02004807 CONDUIT    128.11     0  03:04      0.25    0.08    0.75
  HS02004807HS02004802 CONDUIT    165.30     0  03:04      0.46    0.32    0.53
  YS02001759YS02001757 CONDUIT    621.06     0  02:42      0.79    0.44    1.00
  YS02001762YS02001759 CONDUIT    314.70     0  02:42      0.40    0.36    1.00
  YS02001765YS02001762 CONDUIT    315.33     0  02:42      0.40    0.30    1.00
  YS02001770YS02001767 CONDUIT    315.29     0  02:42      0.40    1.25    1.00
  YS02001774YS02001770 CONDUIT    675.14     0  03:02      0.86    0.43    1.00
  YS02001779YS02001774 CONDUIT    675.44     0  03:02      0.86    0.34    1.00
  YS02001649YS02001757 CONDUIT    876.35     0  02:39      1.12    0.53    1.00
  YS02001767YS02001765 CONDUIT    315.74     0  02:43      0.40    0.40    1.00
  YS02006561YS02001783 CONDUIT   1147.87     0  02:58      2.28    0.59    1.00
  YS02001783YS02001784 CONDUIT   1149.39     0  02:58      2.29    1.58    1.00
  YS02001784YS02001785 CONDUIT   1148.92     0  02:58      2.29    2.67    1.00
  YS02001788YS02001790 CONDUIT   1162.31     0  02:57      2.73    0.86    1.00
  YS02001790YS02001791 CONDUIT   1263.58     0  02:52      3.39    1.37    1.00
  YS02001791YS02001793 CONDUIT   1223.40     0  02:52      6.75    0.53    1.00
  YS02001910YS02001907 CONDUIT    594.15     0  03:01      0.76    0.33    1.00
  YS02001786YS02001788 CONDUIT   1151.23     0  02:58      2.46    2.22    1.00
  YS02001915YS02001910 CONDUIT    594.37     0  03:01      0.76    0.30    1.00
  YS02001918YS02001915 CONDUIT    258.50     0  02:52      0.44    0.14    1.00
  YS02001923YS02001920 CONDUIT    255.12     0  02:52      0.75    0.11    1.00
  YS02001926YS02001923 CONDUIT    224.56     0  02:52      0.86    0.32    0.93
  YS02001929YS02001926 CONDUIT    199.23     0  03:02      0.92    0.09    0.82
  YS02001920YS02001918 CONDUIT    257.77     0  02:52      0.72    0.25    1.00
  YS02001629YS02163301 CONDUIT    203.50     0  02:33      0.26    0.25    1.00
  YS02001619YS02001622 CONDUIT    381.15     0  03:01      0.59    0.56    1.00
  YS02001622YS02001625 CONDUIT    381.35     0  03:01      0.49    0.20    1.00
  YS02001625YS02001629 CONDUIT    195.76     0  02:39      0.25    0.09    1.00
  YS02163301YS02001633 CONDUIT    206.67     0  02:33      0.26    0.19    1.00
  YS02163601YS02164001 CONDUIT    413.76     0  02:40      0.53    0.37    1.00
  YS02164001YS02001641 CONDUIT    413.27     0  02:40      0.53    0.56    1.00
  YS02001641YS02001644 CONDUIT    413.77     0  02:40      0.53    1.34    1.00
  YS02001647YS02001649 CONDUIT    728.96     0  03:10      0.93    0.38    1.00
  YS02006553YS02006556 CONDUIT    719.45     0  02:51      0.92    0.62    1.00
  YS02006556YS02006558 CONDUIT    718.58     0  02:51      0.91    0.57    1.00
  YSB6556YSB1171       CONDUIT     42.81     0  03:02      0.13    0.04    0.82
  YS02001907YS02006553 CONDUIT    719.74     0  02:51      0.80    0.85    1.00
  YS02006558YS02006561 CONDUIT   1147.75     0  02:58      4.06    2.54    1.00
  YS02001633YS02163601 CONDUIT    414.39     0  02:40      0.53    0.44    1.00
  YS02001644YS02001647 CONDUIT    728.98     0  03:10      0.93    0.43    1.00
  YS02001745YS02001748 CONDUIT    576.85     0  02:32      1.45    0.22    0.98
  YS02001748YS02001751 CONDUIT    442.80     0  03:01      1.03    0.22    1.00
  YS02001751YS02001754 CONDUIT    442.79     0  03:01      0.88    0.21    1.00
  YS02001754YS02001757 CONDUIT    443.05     0  03:01      0.56    0.18    1.00
  YS02001882YS02001884 CONDUIT     18.36     0  04:11      0.12    0.02    1.00
  YS02001884YS02001887 CONDUIT     27.07     0  04:12      0.08    0.04    1.00
  YS02001890YS02001895 CONDUIT    518.41     0  02:58      0.66    0.24    1.00
  YS02001895YS02001898 CONDUIT    518.13     0  02:57      0.66    0.90    1.00
  YS02001898YS02001901 CONDUIT    518.57     0  03:01      0.66    0.33    1.00
  YS02001901YS02001904 CONDUIT    518.10     0  03:02      0.66    0.80    1.00
  YS02001904YS02001907 CONDUIT    518.57     0  02:58      0.66    0.18    1.00
  YS02001887YS02001890 CONDUIT    680.91     0  03:01      0.87    1.17    1.00
  YS02001652YS02001649 CONDUIT    500.46     0  03:01      0.64    0.25    1.00
  YS02001655YS02001652 CONDUIT    500.14     0  03:01      0.94    0.24    1.00
  YS02001658YS02001655 CONDUIT    500.47     0  03:01      1.18    0.21    1.00
  YS02001661YS02001658 CONDUIT    606.05     0  02:29      1.52    0.24    1.00
  YS02001664YS02001661 CONDUIT    672.09     0  02:43      1.43    0.21    0.77
  YSB1154YSB6556       CONDUIT     43.27     0  03:01      0.18    0.08    0.73
  YSB1174YSB1171       CONDUIT     36.65     0  03:01      0.11    0.06    0.85
  YSB1171HS02004479    CONDUIT     75.41     0  03:02      0.54    0.05    0.68
  HS02004881HS02006253 CONDUIT    140.48     0  03:01      2.15    0.03    0.54
  YS02001793JiankangQianchi CONDUIT   1222.39     0  02:52     16.66    0.10    1.00
  YS02001757CaochengTiaoxuchi CONDUIT   1679.16     0  02:40      2.17    0.74    1.00
  WSF200WS02003060     CONDUIT    939.39     0  03:04      1.93    0.21    0.45
  1                    CONDUIT   1335.30     0  03:07      3.59    0.46    0.48
  CC-Pump-1            PUMP       200.00     0  03:00              1.00
  CC-Pump-2            PUMP       200.00     0  04:20              1.00
  JK-Pump-1            PUMP       300.00     0  00:00              1.00
  JK-Pump-2            PUMP       683.00     0  00:00              1.00
  XR-Pump-1            PUMP        95.00     0  00:00              1.00
  XR-Pump-2            PUMP        95.00     0  00:00              1.00
  XR-Pump-3            PUMP        95.00     0  00:00              1.00
  XR-Pump-4            PUMP        95.00     0  00:00              1.00
  
  
  ***************************
  Flow Classification Summary
  ***************************
  
  -------------------------------------------------------------------------------------
                      Adjusted    ---------- Fraction of Time in Flow Class ---------- 
                       /Actual         Up    Down  Sub   Sup   Up    Down  Norm  Inlet 
  Conduit               Length    Dry  Dry   Dry   Crit  Crit  Crit  Crit  Ltd   Ctrl  
  -------------------------------------------------------------------------------------
  WS02003066WSF200        1.00   0.02  0.05  0.00  0.00  0.94  0.00  0.00  0.35  0.00
  WS02006287WS02006284    1.00   0.03  0.01  0.00  0.63  0.33  0.00  0.00  0.65  0.00
  WS02006284WS02006280    1.00   0.03  0.00  0.00  0.00  0.00  0.00  0.97  0.00  0.00
  WS02006280WS02006229    1.00   0.03  0.00  0.00  0.01  0.02  0.00  0.94  0.01  0.00
  WS02006229WS02006228    1.00   0.00  0.00  0.00  1.00  0.00  0.00  0.00  0.00  0.00
  WS02006256WS02006235    1.00   0.00  0.00  0.00  1.00  0.00  0.00  0.00  0.00  0.00
  WS02006253WS02006251    1.00   0.01  0.01  0.00  0.97  0.00  0.00  0.00  0.00  0.00
  WS02006252WS02006251    1.00   0.16  0.00  0.00  0.15  0.00  0.68  0.00  0.00  0.00
  WS02006251WS02006249    1.00   0.00  0.00  0.00  1.00  0.00  0.00  0.00  0.23  0.00
  WS02006249WS02006248    1.00   0.00  0.01  0.00  0.92  0.00  0.08  0.00  0.00  0.00
  WS02006248WS02006247    1.00   0.01  0.00  0.00  0.98  0.00  0.00  0.01  0.12  0.00
  WS02006247WS02006245    1.00   0.01  0.00  0.00  0.97  0.00  0.00  0.02  0.00  0.00
  WS02006245WS02006243    1.00   0.00  0.00  0.00  0.95  0.00  0.00  0.05  0.01  0.00
  WS02006243WS02006242    1.00   0.00  0.00  0.00  1.00  0.00  0.00  0.00  0.22  0.00
  WS02006242WS02006240    1.00   0.00  0.00  0.00  1.00  0.00  0.00  0.00  0.00  0.00
  WS02006240WS02006239    1.00   0.00  0.00  0.00  0.95  0.00  0.00  0.05  0.01  0.00
  WS02006239WS02006238    1.00   0.00  0.00  0.00  1.00  0.00  0.00  0.00  0.14  0.00
  WS02006238WS02006235    1.00   0.00  0.00  0.00  1.00  0.00  0.00  0.00  0.00  0.00
  WS02006235WS02006234    1.00   0.00  0.00  0.00  0.96  0.00  0.04  0.00  0.00  0.00
  WS02006234WS02006232    1.00   0.00  0.00  0.00  1.00  0.00  0.00  0.00  0.11  0.00
  WS02006232WS02006231    1.00   0.00  0.00  0.00  1.00  0.00  0.00  0.00  0.00  0.00
  WS02006231WS02006230    1.00   0.00  0.00  0.00  0.77  0.00  0.23  0.00  0.00  0.00
  WS02006230WS02006229    1.00   0.00  0.00  0.00  1.00  0.00  0.00  0.00  0.01  0.00
  WS02006228WS02006109    1.00   0.00  0.00  0.00  1.00  0.00  0.00  0.00  0.00  0.00
  WS02006116WS02004401    1.00   0.01  0.00  0.00  0.99  0.00  0.00  0.00  0.01  0.00
  WS02006115WS02006116    1.00   0.01  0.00  0.00  0.97  0.00  0.00  0.02  0.01  0.00
  WS02006113WS02006111    1.00   0.01  0.00  0.00  0.04  0.96  0.00  0.00  0.12  0.00
  WS02006112WS02006115    1.00   0.01  0.00  0.00  0.99  0.00  0.00  0.00  0.00  0.00
  WS02006111WS02006112    1.00   0.01  0.00  0.00  0.99  0.00  0.00  0.00  0.87  0.00
  WS02006110WS02006113    1.00   0.00  0.00  0.00  0.99  0.00  0.00  0.00  0.00  0.00
  WS02006109WS02006110    1.00   0.00  0.00  0.00  1.00  0.00  0.00  0.00  0.00  0.00
  WS02004411WS02004412    1.00   0.05  0.00  0.00  0.95  0.00  0.00  0.00  0.00  0.00
  WS02004401WS02004402    1.00   0.01  0.00  0.00  0.99  0.00  0.00  0.00  0.01  0.00
  WS02004413WS02003067    1.00   0.05  0.01  0.00  0.00  0.00  0.94  0.00  0.00  0.00
  WS02004412WS02004413    1.00   0.05  0.00  0.00  0.95  0.00  0.00  0.00  0.00  0.00
  WS02004410WS02004411    1.00   0.05  0.00  0.00  0.95  0.00  0.00  0.00  0.00  0.00
  WS02004409WS02004410    1.00   0.05  0.00  0.00  0.95  0.00  0.00  0.00  0.00  0.00
  WS02004407WS02004409    1.00   0.05  0.00  0.00  0.95  0.00  0.00  0.00  0.80  0.00
  WS02004406WS02004407    1.00   0.00  0.05  0.00  0.95  0.00  0.00  0.00  0.00  0.00
  WS02004405WS02004406    1.00   0.00  0.00  0.00  1.00  0.00  0.00  0.00  0.02  0.00
  WS02004404WS02004405    1.00   0.00  0.00  0.00  1.00  0.00  0.00  0.00  0.00  0.00
  WS02004403WS02004404    1.00   0.00  0.01  0.00  0.99  0.00  0.00  0.00  0.02  0.00
  WS02004402WS02004403    1.00   0.01  0.00  0.00  0.99  0.00  0.00  0.00  0.00  0.00
  WS02004139WS02001211    1.00   0.00  0.00  0.00  1.00  0.00  0.00  0.00  0.00  0.00
  WS02004138WS02004139    1.00   0.00  0.00  0.00  1.00  0.00  0.00  0.00  1.00  0.00
  WS02003067WS02003066    1.00   0.06  0.00  0.00  0.94  0.00  0.00  0.00  0.00  0.00
  WS02001213WS02003059    1.00   0.00  0.00  0.00  1.00  0.00  0.00  0.00  0.00  0.00
  WS02001212WS02001213    1.00   0.00  0.00  0.00  0.93  0.00  0.07  0.00  0.00  0.00
  WS02001211WS02001212    1.00   0.00  0.00  0.00  1.00  0.00  0.00  0.00  0.00  0.00
  WS02003072WS02003073    1.00   0.00  0.00  0.00  0.00  0.00  0.00  1.00  0.00  0.00
  WS02003069WS02003072    1.00   0.00  0.00  0.00  1.00  0.00  0.00  0.00  0.11  0.00
  WS02003060WS02003069    1.00   0.00  0.00  0.00  0.99  0.01  0.00  0.00  0.09  0.00
  WS02003059WS02003060    1.00   0.00  0.00  0.00  1.00  0.00  0.00  0.00  0.00  0.00
  HS02004901HS02004770    1.00   0.03  0.00  0.00  0.97  0.00  0.00  0.00  0.00  0.00
  HS02004876HS02004881    1.00   0.01  0.00  0.00  0.93  0.07  0.00  0.00  0.00  0.00
  HS02004870HS02004876    1.00   0.00  0.00  0.00  1.00  0.00  0.00  0.00  0.95  0.00
  HS02004842HS02004848    1.00   0.00  0.03  0.00  0.97  0.00  0.00  0.00  0.54  0.00
  HS02004837HS02004842    1.00   0.00  0.00  0.00  1.00  0.00  0.00  0.00  0.11  0.00
  HS02004830HS02004837    1.00   0.00  0.00  0.00  1.00  0.00  0.00  0.00  0.99  0.00
  HS02004824HS02004830    1.00   0.00  0.00  0.00  1.00  0.00  0.00  0.00  0.01  0.00
  HS02004817HS02004824    1.00   0.00  0.00  0.00  1.00  0.00  0.00  0.00  0.97  0.00
  HS02004770HS02004777    1.00   0.00  0.03  0.00  0.97  0.00  0.00  0.00  0.03  0.00
  HS02004799HS02004480    1.00   0.00  0.01  0.00  0.96  0.00  0.03  0.00  0.00  0.00
  HS02004792HS02004799    1.00   0.00  0.00  0.00  1.00  0.00  0.00  0.00  0.98  0.00
  HS02004788HS02004792    1.00   0.00  0.00  0.00  1.00  0.00  0.00  0.00  0.98  0.00
  HS02004785HS02004788    1.00   0.00  0.00  0.00  1.00  0.00  0.00  0.00  0.00  0.00
  HS02004777HS02004785    1.00   0.00  0.00  0.00  1.00  0.00  0.00  0.00  0.12  0.00
  HS02004480HS02004478    1.00   0.03  0.00  0.00  0.71  0.00  0.00  0.26  0.00  0.00
  HS02004479HS02004480    1.00   0.01  0.00  0.00  0.99  0.00  0.00  0.00  0.12  0.00
  HS02004862HS02004870    1.00   0.00  0.00  0.00  1.00  0.00  0.00  0.00  0.04  0.00
  HS02004848HS02004852    1.00   0.03  0.00  0.00  0.97  0.00  0.00  0.00  0.64  0.00
  HS02004856HS02004862    1.00   0.00  0.04  0.00  0.96  0.00  0.00  0.00  0.83  0.00
  HS02004852HS02004856    1.00   0.03  0.00  0.00  0.97  0.00  0.00  0.00  0.81  0.00
  HS02004802HS02004478    1.00   0.03  0.00  0.00  0.97  0.00  0.00  0.00  0.02  0.00
  HS02004478WS02006287    1.00   0.04  0.00  0.00  0.79  0.18  0.00  0.00  0.65  0.00
  HS02004817HS02004807    1.00   0.00  0.03  0.00  0.97  0.00  0.00  0.00  0.01  0.00
  HS02004807HS02004802    1.00   0.03  0.00  0.00  0.97  0.00  0.00  0.00  0.00  0.00
  YS02001759YS02001757    1.00   0.00  0.00  0.00  1.00  0.00  0.00  0.00  0.16  0.00
  YS02001762YS02001759    1.00   0.00  0.00  0.00  1.00  0.00  0.00  0.00  0.03  0.00
  YS02001765YS02001762    1.00   0.00  0.00  0.00  1.00  0.00  0.00  0.00  0.14  0.00
  YS02001770YS02001767    1.00   0.00  0.00  0.00  1.00  0.00  0.00  0.00  0.00  0.00
  YS02001774YS02001770    1.00   0.00  0.03  0.00  0.97  0.00  0.00  0.00  0.03  0.00
  YS02001779YS02001774    1.00   0.00  0.00  0.00  1.00  0.00  0.00  0.00  0.19  0.00
  YS02001649YS02001757    1.00   0.00  0.00  0.00  1.00  0.00  0.00  0.00  0.16  0.00
  YS02001767YS02001765    1.00   0.00  0.00  0.00  1.00  0.00  0.00  0.00  0.00  0.00
  YS02006561YS02001783    1.00   0.04  0.00  0.00  0.35  0.60  0.00  0.00  0.45  0.00
  YS02001783YS02001784    1.00   0.00  0.05  0.00  0.95  0.00  0.00  0.00  0.01  0.00
  YS02001784YS02001785    1.00   0.00  0.00  0.00  1.00  0.00  0.00  0.00  0.18  0.00
  YS02001788YS02001790    1.00   0.00  0.00  0.00  0.36  0.64  0.00  0.00  0.39  0.00
  YS02001790YS02001791    1.00   0.00  0.00  0.00  0.32  0.68  0.00  0.00  0.49  0.00
  YS02001791YS02001793    1.00   0.00  0.00  0.00  0.35  0.65  0.00  0.00  0.03  0.00
  YS02001910YS02001907    1.00   0.00  0.00  0.00  0.99  0.00  0.00  0.01  0.12  0.00
  YS02001786YS02001788    1.00   0.00  0.00  0.00  0.37  0.63  0.00  0.00  0.00  0.00
  YS02001915YS02001910    1.00   0.00  0.00  0.00  0.99  0.01  0.00  0.00  0.16  0.00
  YS02001918YS02001915    1.00   0.00  0.00  0.00  0.99  0.00  0.00  0.00  0.54  0.00
  YS02001923YS02001920    1.00   0.00  0.00  0.00  1.00  0.00  0.00  0.00  0.82  0.00
  YS02001926YS02001923    1.00   0.00  0.02  0.00  0.16  0.00  0.82  0.00  0.00  0.00
  YS02001929YS02001926    1.00   0.00  0.03  0.00  0.97  0.00  0.00  0.00  0.75  0.00
  YS02001920YS02001918    1.00   0.00  0.00  0.00  1.00  0.00  0.00  0.00  0.00  0.00
  YS02001629YS02163301    1.00   0.04  0.00  0.00  0.96  0.00  0.00  0.00  0.00  0.00
  YS02001619YS02001622    1.00   0.03  0.00  0.00  0.97  0.00  0.00  0.00  0.00  0.00
  YS02001622YS02001625    1.00   0.03  0.00  0.00  0.97  0.00  0.00  0.00  0.05  0.00
  YS02001625YS02001629    1.00   0.03  0.01  0.00  0.94  0.00  0.02  0.00  0.00  0.00
  YS02163301YS02001633    1.00   0.00  0.04  0.00  0.96  0.00  0.00  0.00  0.00  0.00
  YS02163601YS02164001    1.00   0.00  0.02  0.00  0.98  0.00  0.00  0.00  0.00  0.00
  YS02164001YS02001641    1.00   0.00  0.02  0.00  0.98  0.00  0.00  0.00  0.06  0.00
  YS02001641YS02001644    1.00   0.00  0.00  0.00  1.00  0.00  0.00  0.00  0.00  0.00
  YS02001647YS02001649    1.00   0.00  0.04  0.00  0.96  0.00  0.00  0.00  0.01  0.00
  YS02006553YS02006556    1.00   0.00  0.00  0.00  1.00  0.00  0.00  0.00  0.03  0.00
  YS02006556YS02006558    1.00   0.00  0.00  0.00  1.00  0.00  0.00  0.00  0.00  0.00
  YSB6556YSB1171          1.00   0.01  0.02  0.00  0.97  0.00  0.00  0.00  0.00  0.00
  YS02001907YS02006553    1.00   0.00  0.01  0.00  0.99  0.00  0.00  0.00  0.00  0.00
  YS02006558YS02006561    1.00   0.04  0.00  0.00  0.15  0.81  0.00  0.00  0.46  0.00
  YS02001633YS02163601    1.00   0.00  0.00  0.00  1.00  0.00  0.00  0.00  0.15  0.00
  YS02001644YS02001647    1.00   0.00  0.04  0.00  0.96  0.00  0.00  0.00  0.00  0.00
  YS02001745YS02001748    1.00   0.00  0.00  0.00  0.92  0.00  0.00  0.08  0.04  0.00
  YS02001748YS02001751    1.00   0.00  0.00  0.00  0.97  0.03  0.00  0.00  0.15  0.00
  YS02001751YS02001754    1.00   0.00  0.00  0.00  0.95  0.00  0.00  0.05  0.02  0.00
  YS02001754YS02001757    1.00   0.00  0.00  0.00  1.00  0.00  0.00  0.00  0.18  0.00
  YS02001882YS02001884    1.00   0.04  0.00  0.00  0.96  0.00  0.00  0.00  0.00  0.00
  YS02001884YS02001887    1.00   0.02  0.01  0.00  0.97  0.00  0.00  0.00  0.00  0.00
  YS02001890YS02001895    1.00   0.00  0.04  0.00  0.96  0.00  0.00  0.00  0.00  0.00
  YS02001895YS02001898    1.00   0.04  0.00  0.00  0.95  0.00  0.01  0.00  0.00  0.00
  YS02001898YS02001901    1.00   0.04  0.00  0.00  0.96  0.00  0.00  0.00  0.01  0.00
  YS02001901YS02001904    1.00   0.04  0.00  0.00  0.96  0.00  0.00  0.00  0.00  0.00
  YS02001904YS02001907    1.00   0.00  0.04  0.00  0.96  0.00  0.00  0.00  0.00  0.00
  YS02001887YS02001890    1.00   0.00  0.00  0.00  0.99  0.00  0.01  0.00  0.00  0.00
  YS02001652YS02001649    1.00   0.00  0.00  0.00  1.00  0.00  0.00  0.00  0.17  0.00
  YS02001655YS02001652    1.00   0.00  0.00  0.00  0.95  0.00  0.00  0.05  0.02  0.00
  YS02001658YS02001655    1.00   0.00  0.03  0.00  0.94  0.03  0.00  0.00  0.10  0.00
  YS02001661YS02001658    1.00   0.03  0.00  0.00  0.92  0.05  0.00  0.00  0.11  0.00
  YS02001664YS02001661    1.00   0.03  0.00  0.00  0.93  0.04  0.00  0.00  0.20  0.00
  YSB1154YSB6556          1.00   0.03  0.00  0.00  0.97  0.00  0.00  0.00  0.02  0.00
  YSB1174YSB1171          1.00   0.01  0.01  0.00  0.98  0.00  0.00  0.00  0.00  0.00
  YSB1171HS02004479       1.00   0.01  0.00  0.00  0.99  0.00  0.00  0.00  0.10  0.00
  HS02004881HS02006253    1.00   0.01  0.00  0.00  0.78  0.02  0.00  0.19  0.60  0.00
  YS02001793JiankangQianchi    1.00   0.00  0.00  0.00  0.62  0.38  0.00  0.00  0.40  0.00
  YS02001757CaochengTiaoxuchi    1.00   0.00  0.06  0.00  0.94  0.00  0.00  0.00  0.00  0.00
  WSF200WS02003060        1.00   0.00  0.02  0.00  0.98  0.00  0.00  0.00  0.33  0.00
  1                       1.00   0.00  0.00  0.00  0.00  1.00  0.00  0.00  0.50  0.00
  
  
  *************************
  Conduit Surcharge Summary
  *************************
  
  ----------------------------------------------------------------------------
                                                           Hours        Hours 
                         --------- Hours Full --------   Above Full   Capacity
  Conduit                Both Ends  Upstream  Dnstream   Normal Flow   Limited
  ----------------------------------------------------------------------------
  WS02006229WS02006228        4.41      4.46      4.41      5.06         4.41
  WS02006256WS02006235        5.88      5.88      6.66      4.74         0.01
  WS02006253WS02006251        2.27      2.27      2.34      0.01         0.01
  WS02006252WS02006251        1.59      1.59      2.50      1.83         0.01
  WS02006251WS02006249        2.29      2.29      2.38      1.00         0.82
  WS02006249WS02006248        2.31      2.31      2.38      4.01         0.01
  WS02006248WS02006247        2.38      2.38      2.51      0.01         0.01
  WS02006247WS02006245        2.50      2.55      2.50      4.40         2.36
  WS02006245WS02006243        2.53      2.54      2.65      0.11         0.20
  WS02006243WS02006242        2.70      2.70      3.57      0.01         0.01
  WS02006242WS02006240        3.52      3.52      3.66      2.15         0.01
  WS02006240WS02006239        3.54      3.54      3.63      1.03         0.62
  WS02006239WS02006238        3.75      3.75      3.85      1.18         0.84
  WS02006238WS02006235        3.84      3.84      3.93      0.01         0.02
  WS02006235WS02006234        3.68      3.68      3.81      5.87         0.01
  WS02006234WS02006232        3.75      3.75      4.07      1.27         1.22
  WS02006232WS02006231        2.68      2.68      4.07      1.45         0.01
[...]
  YS02001770YS02001767        5.69      5.69      5.69      0.20         0.67
  YS02001774YS02001770        5.67      5.67      5.74      0.01         0.01
  YS02001779YS02001774        5.56      5.56      5.74      0.01         0.01
  YS02001649YS02001757        5.75      5.75      5.86      0.01         0.01
  YS02001767YS02001765        5.69      5.69      5.72      0.01         0.01
  YS02006561YS02001783        0.86      0.86      1.18      0.01         0.01
  YS02001783YS02001784        1.14      1.18      1.14      1.56         1.14
  YS02001784YS02001785        0.97      1.14      0.97      2.49         0.97
  YS02001788YS02001790        0.76      0.76      1.41      0.01         0.01
  YS02001790YS02001791        1.40      1.41      1.49      1.11         0.85
  YS02001791YS02001793        1.49      1.49      1.86      0.01         0.01
  YS02001910YS02001907        1.24      1.24      1.88      0.01         0.01
  YS02001786YS02001788        0.76      0.97      0.76      2.05         0.76
  YS02001915YS02001910        1.04      1.04      1.24      0.01         0.01
  YS02001918YS02001915        0.85      0.85      1.04      0.01         0.01
  YS02001923YS02001920        0.71      0.71      0.88      0.01         0.01
  YS02001920YS02001918        0.85      0.85      0.88      0.01         0.01
  YS02001629YS02163301        5.67      5.67      5.69      0.01         0.01
  YS02001619YS02001622        5.37      5.37      5.41      0.01         0.01
  YS02001622YS02001625        5.41      5.41      5.64      0.01         0.01
  YS02001625YS02001629        5.38      5.38      5.64      0.01         0.01
  YS02163301YS02001633        5.69      5.69      5.72      0.01         0.01
  YS02163601YS02164001        5.72      5.72      5.75      0.01         0.01
  YS02164001YS02001641        5.72      5.72      5.73      0.01         0.02
  YS02001641YS02001644        5.72      5.73      5.73      1.72         1.97
  YS02001647YS02001649        5.62      5.62      5.75      0.01         0.01
  YS02006553YS02006556        1.47      1.47      1.96      0.01         0.01
  YS02006556YS02006558        1.68      1.68      2.08      0.01         0.01
  YSB6556YSB1171              0.01      0.01      0.07      0.01         0.01
  YS02001907YS02006553        2.53      2.53      2.75      0.01         0.01
  YS02006558YS02006561        0.97      1.43      0.97      2.35         0.97
  YS02001633YS02163601        5.71      5.71      5.75      0.01         0.01
  YS02001644YS02001647        5.62      5.62      5.73      0.01         0.01
  YS02001745YS02001748        0.01      0.01      5.22      0.01         0.01
  YS02001748YS02001751        5.27      5.27      5.36      0.01         0.01
  YS02001751YS02001754        5.36      5.36      5.57      0.01         0.01
  YS02001754YS02001757        5.61      5.61      5.86      0.01         0.01
  YS02001882YS02001884        1.06      1.06      1.09      0.01         0.01
  YS02001884YS02001887        1.14      1.14      1.17      0.01         0.01
  YS02001890YS02001895        1.03      1.03      1.26      0.01         0.01
  YS02001895YS02001898        1.01      1.01      1.03      0.01         0.01
  YS02001898YS02001901        1.04      1.04      1.12      0.01         0.01
  YS02001901YS02001904        1.10      1.10      1.12      0.01         0.01
  YS02001904YS02001907        1.10      1.10      1.99      0.01         0.01
  YS02001887YS02001890        1.19      1.19      1.22      0.16         0.01
  YS02001652YS02001649        5.63      5.63      5.75      0.01         0.01
  YS02001655YS02001652        5.39      5.39      5.61      0.01         0.01
  YS02001658YS02001655        5.25      5.25      5.39      0.01         0.01
  YS02001661YS02001658        0.12      0.12      5.25      0.01         0.01
  YS02001664YS02001661        0.01      0.01      1.26      0.01         0.01
  HS02004881HS02006253        0.01      0.01      1.42      0.01         0.01
  YS02001793JiankangQianchi        1.75      1.75      3.71      0.01         0.01
  YS02001757CaochengTiaoxuchi        5.11      5.11      5.86      0.01         0.01
  
  
  ***************
  Pumping Summary
  ***************
  
  ---------------------------------------------------------------------------------------------------------
                                                  Min       Avg       Max     Total     Power    % Time Off
                        Percent   Number of      Flow      Flow      Flow    Volume     Usage    Pump Curve
  Pump                 Utilized   Start-Ups       LPS       LPS       LPS  10^6 ltr     Kw-hr    Low   High
  ---------------------------------------------------------------------------------------------------------
  CC-Pump-1               63.83           1      0.00    180.35    200.00     3.180      3.11    0.0    0.0
  CC-Pump-2               36.17           4      0.00     96.67    200.00     1.200      1.56    0.0    0.0
  JK-Pump-1               65.95           4      0.00    218.26    300.00     4.059     65.86    0.0    0.0
  JK-Pump-2               61.70           7      0.00    389.42    683.00     6.545    100.81    0.0   93.8
  XR-Pump-1               97.87           2      0.00     94.31     95.00     2.565     26.12    0.0    0.0
  XR-Pump-2               97.87           2      0.00     94.31     95.00     2.565     26.12    0.0    0.0
  XR-Pump-3               95.75           3      0.00     93.85     95.00     2.451     23.51    0.0    0.0
  XR-Pump-4               95.75           3      0.00     93.85     95.00     2.451     23.51    0.0    0.0
  
  
  ***************************
  Link Pollutant Load Summary
  ***************************
  
  ------------------------------------------------------------------------------------------
                                 COD            SS            TN            TP         NH4-N
  Link                            kg            kg            kg            kg            kg
  ------------------------------------------------------------------------------------------
  WS02003066WSF200           916.170      1710.444        23.628         2.046        12.394
  WS02006287WS02006284       319.483       608.122        10.315         1.015         5.679
  WS02006284WS02006280       319.969       608.919        10.361         1.021         5.708
  WS02006280WS02006229       319.906       608.792        10.359         1.021         5.707
  WS02006229WS02006228       911.726      1702.423        23.022         1.963        12.006
  WS02006256WS02006235       212.069       392.734         4.664         0.364         2.359
  WS02006253WS02006251        60.782       119.662         1.319         0.098         0.651
  WS02006252WS02006251       375.432       686.588         7.832         0.562         3.851
  WS02006251WS02006249       428.994       793.091         9.032         0.654         4.449
  WS02006249WS02006248       390.164       719.509         8.227         0.595         4.054
  WS02006248WS02006247       389.531       718.360         8.215         0.595         4.048
  WS02006247WS02006245       388.784       717.019         8.199         0.594         4.040
  WS02006245WS02006243       387.854       715.422         8.175         0.592         4.028
  WS02006243WS02006242       387.048       713.988         8.160         0.591         4.021
  WS02006242WS02006240       386.143       712.358         8.146         0.590         4.015
  WS02006240WS02006239       385.776       711.627         8.154         0.592         4.021
  WS02006239WS02006238       386.195       712.140         8.202         0.598         4.052
  WS02006238WS02006235       386.227       712.013         8.221         0.600         4.064
  WS02006235WS02006234       594.684      1098.683        12.734         0.948         6.336
  WS02006234WS02006232       594.315      1098.000        12.732         0.949         6.336
  WS02006232WS02006231       593.748      1096.990        12.718         0.947         6.329
  WS02006231WS02006230       593.094      1095.801        12.706         0.947         6.323
  WS02006230WS02006229       592.448      1094.710        12.684         0.945         6.311
  WS02006228WS02006109       911.173      1701.438        23.008         1.962        11.999
  WS02006116WS02004401       926.660      1729.350        23.893         2.068        12.531
  WS02006115WS02006116       927.552      1730.918        23.917         2.070        12.543
  WS02006113WS02006111       917.532      1711.243        23.755         2.058        12.471
  WS02006112WS02006115       928.601      1732.727        23.957         2.074        12.566
  WS02006111WS02006112       917.297      1710.853        23.751         2.057        12.469
  WS02006110WS02006113       918.098      1712.242        23.776         2.060        12.483
  WS02006109WS02006110       919.077      1713.967        23.815         2.064        12.505
  WS02004411WS02004412       919.610      1716.523        23.759         2.059        12.468
  WS02004401WS02004402       925.625      1727.540        23.856         2.064        12.510
  WS02004413WS02003067       916.817      1711.677        23.644         2.047        12.401
  WS02004412WS02004413       918.501      1714.560        23.725         2.056        12.449
  WS02004410WS02004411       920.536      1718.192        23.786         2.062        12.482
  WS02004409WS02004410       921.511      1719.927        23.818         2.065        12.499
  WS02004407WS02004409       922.256      1721.282        23.835         2.066        12.509
  WS02004406WS02004407       922.439      1721.668        23.833         2.065        12.506
  WS02004405WS02004406       923.960      1724.317        23.905         2.073        12.549
  WS02004404WS02004405       924.468      1725.310        23.889         2.070        12.536
  WS02004403WS02004404       923.902      1724.504        23.799         2.058        12.479
  WS02004402WS02004403       924.768      1726.022        23.831         2.062        12.496
  WS02004139WS02001211      1393.775      2313.854       113.203        13.819        69.780
  WS02004138WS02004139      1400.103      2324.426       113.691        13.878        70.080
  WS02003067WS02003066       916.406      1710.878        23.637         2.047        12.399
  WS02001213WS02003059      1426.509      2365.251       116.606        14.248        71.919
  WS02001212WS02001213      1435.747      2380.563       117.353        14.339        72.379
  WS02001211WS02001212      1437.995      2384.233       117.548        14.363        72.500
  WS02003072WS02003073      2442.287      4233.798       150.176        17.543        90.542
  WS02003069WS02003072      2447.724      4242.668       150.630        17.598        90.823
  WS02003060WS02003069      2450.314      4247.162       150.771        17.614        90.906
  WS02003059WS02003060      1423.285      2359.796       116.376        14.221        71.779
  HS02004901HS02004770        13.093        25.472         0.248         0.019         0.116
  HS02004876HS02004881        45.516        90.349         0.999         0.073         0.491
  HS02004870HS02004876        34.382        68.105         0.798         0.060         0.395
  HS02004842HS02004848         6.456        12.342         0.134         0.009         0.062
  HS02004837HS02004842        11.055        19.633         0.603         0.068         0.356
  HS02004830HS02004837        70.296       122.724         4.643         0.552         2.827
  HS02004824HS02004830        71.069       123.981         4.715         0.561         2.871
  HS02004817HS02004824        97.163       176.405         5.254         0.596         3.135
  HS02004770HS02004777        49.661        97.711         1.021         0.069         0.472
  HS02004799HS02004480       162.325       310.840         4.263         0.379         2.210
  HS02004792HS02004799       147.273       280.123         4.028         0.367         2.105
  HS02004788HS02004792        82.816       157.686         2.666         0.255         1.440
  HS02004785HS02004788        51.121       100.050         1.172         0.089         0.567
  HS02004777HS02004785        50.446        98.944         1.112         0.081         0.530
  HS02004480HS02004478       204.819       395.186         4.971         0.429         2.543
  HS02004479HS02004480        46.121        90.102         1.036         0.091         0.538
  HS02004862HS02004870        25.800        50.340         0.628         0.050         0.314
  HS02004848HS02004852        10.251        19.884         0.210         0.014         0.097
  HS02004856HS02004862        17.524        34.750         0.350         0.023         0.164
  HS02004852HS02004856        10.255        19.889         0.210         0.014         0.097
  HS02004802HS02004478       115.340       214.047         5.398         0.592         3.169
  HS02004478WS02006287       319.697       608.495        10.332         1.017         5.690
  HS02004817HS02004807        95.859       174.313         5.130         0.581         3.057
  HS02004807HS02004802       115.598       214.451         5.430         0.596         3.190
  YS02001759YS02001757       368.020       675.924         7.350         0.510         3.590
  YS02001762YS02001759       177.928       327.632         3.762         0.265         1.860
  YS02001765YS02001762       178.132       328.470         3.786         0.267         1.874
  YS02001770YS02001767       177.926       329.655         3.584         0.237         1.740
  YS02001774YS02001770       247.412       483.949         4.729         0.314         2.284
  YS02001779YS02001774       246.359       481.836         4.806         0.327         2.339
  YS02001649YS02001757       330.455       595.379         6.628         0.459         3.183
  YS02001767YS02001765       178.831       330.193         3.812         0.269         1.889
  YS02006561YS02001783      1036.268      1922.017        21.694         1.619        10.793
  YS02001783YS02001784      1036.119      1921.766        21.690         1.618        10.791
  YS02001784YS02001785      1043.431      1933.477        22.402         1.707        11.237
  YS02001788YS02001790      1044.051      1934.481        22.479         1.717        11.285
  YS02001790YS02001791      1045.193      1936.389        22.590         1.731        11.355
  YS02001791YS02001793      1045.150      1936.286        22.587         1.731        11.353
  YS02001910YS02001907       391.144       721.429         9.389         0.718         4.811
  YS02001786YS02001788      1043.630      1933.826        22.430         1.711        11.254
  YS02001915YS02001910       391.203       721.526         9.341         0.711         4.779
  YS02001918YS02001915       186.083       328.231         5.126         0.467         2.761
  YS02001923YS02001920       165.511       294.968         3.167         0.222         1.537
  YS02001926YS02001923       164.454       293.203         3.097         0.214         1.495
  YS02001929YS02001926       164.238       292.848         3.066         0.210         1.475
  YS02001920YS02001918       185.302       326.619         5.082         0.462         2.735
  YS02001629YS02163301        96.133       169.986         2.029         0.131         0.946
  YS02001619YS02001622       175.873       321.131         3.601         0.236         1.684
  YS02001622YS02001625       174.668       319.211         3.573         0.234         1.670
  YS02001625YS02001629        97.224       171.772         2.054         0.132         0.958
  YS02163301YS02001633        96.482       170.833         2.031         0.132         0.949
  YS02163601YS02164001       405.697       733.103         7.898         0.562         3.783
  YS02164001YS02001641       405.148       732.167         7.878         0.560         3.772
  YS02001641YS02001644       405.172       732.122         7.872         0.560         3.769
  YS02001647YS02001649       427.663       784.234         8.452         0.590         4.031
  YS02006553YS02006556       702.454      1292.674        15.070         1.153         7.581
  YS02006556YS02006558       702.329      1292.418        15.040         1.149         7.561
  YSB6556YSB1171              26.520        51.964         0.537         0.045         0.272
  YS02001907YS02006553       702.605      1292.987        15.079         1.154         7.587
  YS02006558YS02006561      1036.307      1922.095        21.694         1.618        10.793
  YS02001633YS02163601       406.449       734.280         7.880         0.558         3.768
  YS02001644YS02001647       433.412       794.671         8.543         0.596         4.073
  YS02001745YS02001748       250.622       468.398         5.560         0.388         2.772
  YS02001748YS02001751       248.180       463.869         5.567         0.393         2.785
  YS02001751YS02001754       247.272       462.369         5.555         0.394         2.782
  YS02001754YS02001757       248.005       463.456         5.719         0.416         2.888
  YS02001882YS02001884         2.467         4.240         0.051         0.004         0.025
  YS02001884YS02001887         6.883        12.195         0.136         0.011         0.068
  YS02001890YS02001895       451.123       846.754         8.304         0.625         4.051
  YS02001895YS02001898       450.960       846.540         8.298         0.624         4.047
  YS02001898YS02001901       450.727       846.128         8.293         0.624         4.045
  YS02001901YS02001904       450.569       845.901         8.299         0.625         4.049
  YS02001904YS02001907       450.758       846.175         8.352         0.632         4.083
  YS02001887YS02001890       468.355       880.928         8.647         0.653         4.223
  YS02001652YS02001649       199.568       371.399         4.012         0.289         1.882
  YS02001655YS02001652       200.084       372.249         4.026         0.290         1.889
  YS02001658YS02001655       199.484       371.298         3.937         0.278         1.831
  YS02001661YS02001658       202.813       377.261         4.004         0.283         1.863
  YS02001664YS02001661       219.228       404.060         4.378         0.308         2.033
  YSB1154YSB6556              26.083        51.268         0.486         0.038         0.239
  YSB1174YSB1171              18.021        35.562         0.361         0.029         0.180
  YSB1171HS02004479           46.087        90.050         1.039         0.092         0.540
  HS02004881HS02006253        51.734       103.144         1.105         0.080         0.541
  YS02001793JiankangQianchi      1045.798      1937.233        22.621         1.735        11.373
  YS02001757CaochengTiaoxuchi       645.139      1165.963        13.619         0.971         6.694
  WSF200WS02003060           916.014      1710.078        23.639         2.048        12.401
  1                         2449.490      4244.335       151.116        17.664        91.140
  CC-Pump-1                  270.038       493.060         5.645         0.405         2.776
  CC-Pump-2                  105.413       193.560         2.188         0.157         1.075
  JK-Pump-1                  282.021       529.405         5.884         0.444         2.934
  JK-Pump-2                  499.161       928.363        10.593         0.805         5.302
  XR-Pump-1                  364.153       603.759        29.766         3.637        18.359
  XR-Pump-2                  364.153       603.759        29.766         3.637        18.359
  XR-Pump-3                  337.722       561.470        27.229         3.320        16.773
  XR-Pump-4                  337.722       561.470        27.229         3.320        16.773
  

  Analysis begun on:  Fri Jul 16 11:47:12 2021
  Analysis ended on:  Fri Jul 16 11:47:15 2021
  Total elapsed time: 00:00:03