
  EPA STORM WATER MANAGEMENT MODEL - VERSION 5.1 (Build 5.3.0.dev0)
  --------------------------------------------------------------

  WARNING 04: minimum elevation drop used for Conduit WS02004404WS02004405
  WARNING 03: negative offset ignored for Link YS02001904YS02001907
  
  *********************************************************
  NOTE: The summary statistics displayed in this report are
  based on results found at every computational time step,  
  not just on results from each reporting time step.
  *********************************************************
  
  ****************
  Analysis Options
  ****************
  Flow Units ............... LPS
  Process Models:
    Rainfall/Runoff ........ YES
    RDII ................... NO
    Snowmelt ............... NO
    Groundwater ............ NO
    Flow Routing ........... YES
    Ponding Allowed ........ NO
    Water Quality .......... YES
  Infiltration Method ...... HORTON
  Flow Routing Method ...... DYNWAVE
  Surcharge Method ......... EXTRAN
  Starting Date ............ 08/28/2015 08:00:00
  Ending Date .............. 08/28/2015 15:50:00
  Antecedent Dry Days ...... 8.0
  Report Time Step ......... 00:01:00
  Wet Time Step ............ 00:01:00
  Dry Time Step ............ 00:01:00
  Routing Time Step ........ 5.00 sec
  Variable Time Step ....... YES
  Maximum Trials ........... 8
  Number of Threads ........ 4
  Head Tolerance ........... 0.001500 m
  
  
  **************************        Volume         Depth
  Runoff Quantity Continuity     hectare-m            mm
  **************************     ---------       -------
  Total Precipitation ......         6.144        13.452
  Evaporation Loss .........         0.000         0.000
  Infiltration Loss ........         1.064         2.328
  Surface Runoff ...........         4.147         9.079
  Final Storage ............         0.935         2.047
  Continuity Error (%) .....        -0.020
  
  
  **************************           COD            SS            TN            TP         NH4-N
  Runoff Quality Continuity             kg            kg            kg            kg            kg
  **************************    ----------    ----------    ----------    ----------    ----------
  Initial Buildup ..........     41378.656     70582.865      1804.177       168.684      1032.807
  Surface Buildup ..........        21.799        40.924         2.400         0.218         1.395
  Wet Deposition ...........         0.000         0.000         0.000         0.000         0.000
  Sweeping Removal .........         0.000         0.000         0.000         0.000         0.000
  Infiltration Loss ........        97.311       184.943         1.849         0.130         0.881
  BMP Removal ..............         0.000         0.000         0.000         0.000         0.000
  Surface Runoff ...........      3769.819      7064.251        72.781         4.964        34.599
  Remaining Buildup ........     37531.916     63371.884      1731.919       163.806       998.709
  Continuity Error (%) .....         0.003         0.004         0.002         0.001         0.001
  
  
  **************************        Volume        Volume
  Flow Routing Continuity        hectare-m      10^6 ltr
  **************************     ---------     ---------
  Dry Weather Inflow .......         0.616         6.165
  Wet Weather Inflow .......         4.145        41.451
  Groundwater Inflow .......         0.000         0.000
  RDII Inflow ..............         0.000         0.000
  External Inflow ..........         0.102         1.024
  External Outflow .........         2.056        20.564
  Flooding Loss ............         2.345        23.447
  Evaporation Loss .........         0.000         0.000
  Exfiltration Loss ........         0.000         0.000
  Initial Stored Volume ....         0.076         0.761
  Final Stored Volume ......         0.654         6.539
  Continuity Error (%) .....        -2.327
  
  
  **************************           COD            SS            TN            TP         NH4-N
  Quality Routing Continuity            kg            kg            kg            kg            kg
  **************************    ----------    ----------    ----------    ----------    ----------
  Dry Weather Inflow .......      1541.201      2465.922       147.955        18.494        92.472
  Wet Weather Inflow .......      3769.035      7062.950        72.764         4.963        34.591
  Groundwater Inflow .......         0.000         0.000         0.000         0.000         0.000
  RDII Inflow ..............         0.000         0.000         0.000         0.000         0.000
  External Inflow ..........       183.418       293.469        17.608         2.201        11.005
  External Outflow .........      2436.315      4221.587       149.543        17.463        90.145
  Flooding Loss ............      2382.433      4449.581        61.129         5.340        32.141
  Exfiltration Loss ........         0.000         0.000         0.000         0.000         0.000
  Mass Reacted .............         0.000         0.000         0.000         0.000         0.000
  Initial Stored Mass ......         0.000         0.000         0.000         0.000         0.000
  Final Stored Mass ........       545.207       930.964        24.390         2.598        14.117
  Continuity Error (%) .....         2.361         2.242         1.370         1.008         1.206
  
  
  *************************
  Highest Continuity Errors
  *************************
  Node HS02004842 (13.41%)
  Node JK-storage (-10.85%)
  Node YS02001884 (9.93%)
  Node HS02004817 (2.53%)
  Node YSB1171 (2.46%)
  
  
  ***************************
  Time-Step Critical Elements
  ***************************
  Link WS02006252WS02006251 (65.90%)
  Link WS02006280WS02006229 (10.86%)
  Link YS02001793JiankangQianchi (5.25%)
  Link WS02006238WS02006235 (4.33%)
  Link WS02004404WS02004405 (2.95%)
  
  
  ********************************
  Highest Flow Instability Indexes
  ********************************
  Link WS02006113WS02006111 (41)
  Link YS02163601YS02164001 (32)
  Link YS02001629YS02163301 (31)
  Link YS02163301YS02001633 (30)
  Link YS02001619YS02001622 (29)
  
  
  *************************
  Routing Time Step Summary
  *************************
  Minimum Time Step           :     0.50 sec
  Average Time Step           :     1.15 sec
  Maximum Time Step           :     5.00 sec
  Percent in Steady State     :    -0.00
  Average Iterations per Step :     4.08
  Percent Not Converging      :    17.52
  
  
  ***************************
  Subcatchment Runoff Summary
  ***************************
  
  ------------------------------------------------------------------------------------------------------------------------------
                            Total      Total      Total      Total     Imperv       Perv      Total       Total     Peak  Runoff
                           Precip      Runon       Evap      Infil     Runoff     Runoff     Runoff      Runoff   Runoff   Coeff
  Subcatchment                 mm         mm         mm         mm         mm         mm         mm    10^6 ltr      LPS
  ------------------------------------------------------------------------------------------------------------------------------
  sub0                      13.45       0.00       0.00       0.63      12.47       0.31      12.77        0.01     3.75   0.950
  sub1                      13.45       0.00       0.00       1.12      11.88       0.36      12.24        0.08    25.66   0.910
  sub2                      13.45       0.00       0.00       4.44       8.39       0.53       8.92        0.08    25.29   0.663
  sub3                      13.45       0.00       0.00       4.56       8.35       0.42       8.77        0.20    55.75   0.652
  sub4                      13.45       0.00       0.00       1.22      11.71       0.26      11.97        0.25    65.52   0.890
  sub5                      13.45       0.00       0.00       0.68      12.41       0.26      12.67        0.14    44.76   0.942
  sub7                      13.45       0.00       0.00       0.86      12.18       0.35      12.53        0.04    14.26   0.931
  sub8                      13.45       0.00       0.00       0.87      12.17       0.34      12.50        0.08    26.26   0.930
  sub9                      13.45       0.00       0.00       0.88      12.17       0.33      12.50        0.06    19.64   0.929
  sub10                     13.45       0.00       0.00       0.78      12.29       0.29      12.58        0.14    44.00   0.935
  sub11                     13.45       0.00       0.00       0.77      12.30       0.31      12.61        0.15    48.45   0.938
  sub12                     13.45       0.00       0.00       1.25      11.66       0.50      12.16        0.11    38.10   0.904
  sub14                     13.45       0.00       0.00       0.88      12.16       0.33      12.49        0.12    38.67   0.929
  sub15                     13.45       0.00       0.00       3.37       9.35       0.66      10.01        0.17    57.01   0.744
  sub16                     13.45       0.00       0.00       3.56       8.97       0.88       9.85        0.10    37.63   0.732
  sub17                     13.45       0.00       0.00       3.47       9.10       0.84       9.94        0.09    30.67   0.739
  sub22                     13.45       0.00       0.00       4.98       7.63       0.81       8.43        0.53   184.54   0.627
  sub23                     13.45       0.00       0.00       4.17       8.43       0.81       9.24        0.44   154.22   0.687
  sub60                     13.45       0.00       0.00       1.53       9.85       0.09       9.93        3.01   438.14   0.738
  sub61                     13.45       0.00       0.00       2.16       9.95       0.12      10.07        3.11   536.45   0.749
  sub62                     13.45       0.00       0.00       0.98      10.84       0.10      10.94        3.36   552.35   0.813
  sub63                     13.45       0.00       0.00       3.77       8.69       0.14       8.83        2.67   492.63   0.656
  sub64                     13.45       0.00       0.00       1.93       9.45       0.09       9.54        2.90   416.72   0.709
  sub65                     13.45       0.00       0.00       1.67       9.61       0.08       9.70        2.98   423.09   0.721
  sub66                     13.45       0.00       0.00       3.81       8.10       0.09       8.18        2.51   380.66   0.608
  sub67                     13.45       0.00       0.00       0.95      11.38       0.13      11.51        3.55   679.52   0.856
  sub68                     13.45       0.00       0.00       1.75      10.45       0.13      10.59        3.26   586.26   0.787
  sub69                     13.45       0.00       0.00       1.83      10.79       0.19      10.98        2.57   544.72   0.816
  sub70                     13.45      11.20       0.00       7.51      14.65       0.88      15.52        3.55   494.81   0.630
  sub71                     13.45       0.00       0.00       0.99      10.58       0.09      10.67        2.52   389.24   0.793
  sub72                     13.45       0.00       0.00       0.89       8.56       0.05       8.61        1.75   189.18   0.640
  1                         13.45      15.11       0.00       1.37      16.56       4.63      21.19        4.98   484.42   0.742
  2                         13.45       0.00       0.00       3.02       3.21       1.96       5.17        2.07   340.45   0.384
  
  
  ****************************
  Subcatchment Washoff Summary
  ****************************
  
  ------------------------------------------------------------------------------------------
                                 COD            SS            TN            TP         NH4-N
  Subcatchment                    kg            kg            kg            kg            kg
  ------------------------------------------------------------------------------------------
  sub0                         2.670         5.197         0.046         0.004         0.022
  sub1                        11.241        22.423         0.210         0.015         0.101
  sub2                         6.894        13.384         0.145         0.010         0.067
  sub3                        16.924        32.573         0.350         0.024         0.161
  sub4                        25.772        51.904         0.510         0.031         0.245
  sub5                        25.778        50.682         0.460         0.035         0.223
  sub7                         5.751        11.638         0.108         0.007         0.052
  sub8                         8.581        17.755         0.171         0.010         0.082
  sub9                         7.353        15.005         0.142         0.009         0.068
  sub10                       21.202        42.223         0.389         0.028         0.188
  sub11                       20.657        41.614         0.386         0.026         0.187
  sub12                       17.724        35.094         0.321         0.024         0.155
  sub14                       15.732        31.800         0.298         0.020         0.144
  sub15                       20.231        39.321         0.389         0.028         0.182
  sub16                       13.129        25.518         0.249         0.019         0.117
  sub17                       12.049        23.208         0.222         0.017         0.105
  sub22                       62.582       119.432         1.186         0.090         0.554
  sub23                       36.683        72.439         0.776         0.051         0.357
  sub60                      243.520       456.962         4.842         0.298         2.321
  sub61                      302.151       564.434         5.627         0.386         2.710
  sub62                      313.722       596.076         6.119         0.388         2.938
  sub63                      223.275       410.850         4.468         0.314         2.075
  sub64                      305.877       553.773         5.626         0.410         2.687
  sub65                      313.037       569.066         5.795         0.415         2.772
  sub66                      176.068       321.340         3.608         0.236         1.687
  sub67                      466.222       877.505         8.365         0.616         4.045
  sub68                      332.037       626.413         6.347         0.429         3.034
  sub69                      298.258       568.561         5.590         0.393         2.674
  sub70                      502.897       962.303        10.037         0.699         4.710
  sub71                      206.745       396.330         4.242         0.246         2.030
  sub72                      164.385       293.107         3.069         0.210         1.476
  1                          349.075       671.606         7.102         0.495         3.297
  2                           42.749        75.577         1.214         0.073         0.518
  ------------------------------------------------------------------------------------------
  System                    4570.974      8595.115        88.408         6.057        41.983
  
  
  ******************
  Node Depth Summary
  ******************
  
  ---------------------------------------------------------------------------------
                                 Average  Maximum  Maximum  Time of Max    Reported
                                   Depth    Depth      HGL   Occurrence   Max Depth
  Node                 Type       Meters   Meters   Meters  days hr:min      Meters
  ---------------------------------------------------------------------------------
  WS02001211           JUNCTION     0.77     0.85     5.69     0  03:07        0.85
  WS02001212           JUNCTION     0.49     0.58     5.64     0  03:06        0.58
  WS02001213           JUNCTION     0.73     0.85     5.62     0  03:06        0.85
  WS02003069           JUNCTION     0.53     0.72     5.30     0  03:05        0.72
  WS02003072           JUNCTION     0.59     0.76     5.13     0  03:06        0.76
  WS02003073           JUNCTION     0.36     0.48     4.54     0  03:06        0.48
  WS02003060           JUNCTION     0.47     0.63     5.57     0  03:05        0.63
  WS02003066           JUNCTION     0.26     0.39     5.94     0  03:04        0.39
  WS02003059           JUNCTION     0.78     0.91     5.60     0  03:05        0.91
  WS02003067           JUNCTION     0.62     0.82     6.14     0  03:03        0.82
  WS02004401           JUNCTION     0.75     1.24     7.24     0  03:02        1.23
  WS02004402           JUNCTION     0.77     1.22     7.18     0  03:02        1.22
  WS02004403           JUNCTION     0.79     1.20     7.13     0  03:02        1.20
  WS02004404           JUNCTION     0.86     1.25     7.10     0  03:02        1.24
  WS02004406           JUNCTION     0.86     1.16     6.99     0  03:02        1.16
  WS02004409           JUNCTION     0.57     0.96     6.73     0  03:03        0.96
  WS02004410           JUNCTION     0.58     0.95     6.67     0  03:03        0.95
  WS02004411           JUNCTION     0.59     0.93     6.61     0  03:03        0.93
  WS02004412           JUNCTION     0.60     0.90     6.54     0  03:03        0.90
  WS02004413           JUNCTION     0.75     1.02     6.49     0  03:03        1.02
  WS02004405           JUNCTION     0.86     1.22     7.07     0  03:02        1.21
  WS02006109           JUNCTION     0.84     1.66     8.27     0  03:02        1.65
  WS02006110           JUNCTION     0.82     1.45     8.04     0  03:02        1.44
  WS02006111           JUNCTION     0.26     0.89     7.59     0  03:02        0.88
  WS02006112           JUNCTION     0.93     1.56     7.44     0  03:02        1.55
  WS02006113           JUNCTION     0.39     0.92     7.82     0  03:02        0.92
  WS02006115           JUNCTION     0.64     1.22     7.36     0  03:02        1.21
  WS02006116           JUNCTION     0.72     1.26     7.30     0  03:02        1.25
  WS02006230           JUNCTION     0.86     1.88     8.62     0  03:02        1.87
  WS02006231           JUNCTION     0.60     1.52     8.64     0  03:02        1.51
  WS02006232           JUNCTION     0.75     1.62     8.66     0  03:02        1.61
  WS02006234           JUNCTION     0.69     1.52     8.68     0  03:02        1.52
  WS02006235           JUNCTION     0.74     1.54     8.70     0  03:02        1.52
  WS02006238           JUNCTION     0.76     1.56     8.70     0  03:02        1.55
  WS02006240           JUNCTION     0.67     1.40     8.70     0  03:02        1.40
  WS02006242           JUNCTION     0.73     1.43     8.70     0  03:02        1.42
  WS02006243           JUNCTION     0.61     1.28     8.70     0  03:02        1.27
  WS02006245           JUNCTION     0.59     1.22     8.70     0  03:02        1.20
  WS02006247           JUNCTION     0.60     1.20     8.70     0  02:59        1.19
  WS02006248           JUNCTION     0.54     1.10     8.69     0  02:58        1.10
  WS02006249           JUNCTION     0.56     1.09     8.69     0  02:56        1.09
  WS02006239           JUNCTION     0.72     1.49     8.70     0  03:02        1.49
  WS02006251           JUNCTION     0.53     1.30     8.97     0  02:56        1.14
  WS02006252           JUNCTION     0.34     0.81     9.05     0  04:54        0.69
  WS02006253           JUNCTION     0.56     1.38     9.02     0  02:56        1.16
  WS02006256           JUNCTION     1.70     2.35     9.28     0  00:00        2.35
  WS02004138           JUNCTION     0.19     0.20     7.45     0  00:00        0.19
  WS02004139           JUNCTION     0.72     0.79     5.70     0  03:07        0.79
  WS02004407           JUNCTION     0.25     0.40     6.71     0  03:03        0.40
  WS02006228           JUNCTION     0.86     1.83     8.48     0  03:02        1.81
  WS02006229           JUNCTION     0.85     1.90     8.60     0  03:02        1.89
  WS02006280           JUNCTION     0.07     0.30     8.57     0  03:05        0.30
  WS02006284           JUNCTION     0.37     0.65     9.04     0  03:02        0.64
  WS02006287           JUNCTION     0.10     0.39     9.34     0  03:02        0.39
  WSF200               JUNCTION     0.25     0.44     5.67     0  03:04        0.44
  HS02004901           JUNCTION     0.13     0.38    10.20     0  03:01        0.37
  HS02004881           JUNCTION     0.01     0.05     9.08     0  03:01        0.05
  HS02004876           JUNCTION     0.04     0.16     9.19     0  03:01        0.16
  HS02004870           JUNCTION     0.02     0.09     9.38     0  03:01        0.09
  HS02004862           JUNCTION     0.02     0.11     9.49     0  03:01        0.11
  HS02004856           JUNCTION     0.08     0.15     9.58     0  03:01        0.15
  HS02004852           JUNCTION     0.01     0.07     9.59     0  03:02        0.07
  HS02004848           JUNCTION     0.01     0.07     9.67     0  03:01        0.07
  HS02004842           JUNCTION     0.34     0.40     9.67     0  03:01        0.40
  HS02004837           JUNCTION     0.03     0.09     9.67     0  03:01        0.09
  HS02004830           JUNCTION     0.04     0.10     9.57     0  03:02        0.10
  HS02004824           JUNCTION     0.02     0.13     9.53     0  03:02        0.13
  HS02004817           JUNCTION     0.44     0.69     9.54     0  03:02        0.69
  HS02004807           JUNCTION     0.13     0.36     9.53     0  03:02        0.36
  HS02004802           JUNCTION     0.17     0.39     9.52     0  03:02        0.39
  HS02004799           JUNCTION     0.12     0.46     9.68     0  03:01        0.46
  HS02004792           JUNCTION     0.03     0.22     9.74     0  03:01        0.21
  HS02004788           JUNCTION     0.03     0.16    10.05     0  03:02        0.16
  HS02004785           JUNCTION     0.05     0.25    10.15     0  03:02        0.25
  HS02004777           JUNCTION     0.15     0.39    10.19     0  03:01        0.39
  HS02004770           JUNCTION     0.12     0.37    10.20     0  03:01        0.36
  HS02004480           JUNCTION     0.08     0.38     9.62     0  03:01        0.38
  HS02004479           JUNCTION     0.12     0.42     9.62     0  03:01        0.42
  HS02004478           JUNCTION     0.06     0.28     9.50     0  03:01        0.28
  YS02001745           JUNCTION     0.74     0.95     8.47     0  03:01        0.95
  YS02001748           JUNCTION     1.14     2.27     9.35     0  02:32        1.38
  YS02001751           JUNCTION     1.32     2.19     9.07     0  02:32        1.57
  YS02001754           JUNCTION     1.58     2.13     8.74     0  02:32        1.83
  YS02001762           JUNCTION     1.78     2.06     8.46     0  02:32        2.04
  YS02001765           JUNCTION     1.73     2.02     8.47     0  02:32        1.98
  YS02001767           JUNCTION     1.69     1.94     8.43     0  03:00        1.94
  YS02001770           JUNCTION     1.69     1.94     8.43     0  02:32        1.93
  YS02001774           JUNCTION     1.76     2.00     8.42     0  02:32        1.98
  YS02001779           JUNCTION     1.50     1.68     8.37     0  02:32        1.68
  YS02001882           JUNCTION     0.57     1.64     8.35     0  03:00        1.63
  YS02001884           JUNCTION     0.66     1.73     8.35     0  02:58        1.72
  YS02001759           JUNCTION     1.81     2.11     8.47     0  02:32        2.07
  YS02001887           JUNCTION     0.74     1.81     8.35     0  03:00        1.81
  YS02001890           JUNCTION     0.77     1.81     8.32     0  02:46        1.81
  YS02001898           JUNCTION     0.54     1.57     8.30     0  02:46        1.56
  YS02001901           JUNCTION     0.66     1.68     8.29     0  02:55        1.67
  YS02001904           JUNCTION     0.63     1.64     8.27     0  02:46        1.63
  YS02001907           JUNCTION     0.97     1.96     8.25     0  02:46        1.96
  YS02001910           JUNCTION     0.76     1.79     8.29     0  02:47        1.77
  YS02001915           JUNCTION     0.55     1.61     8.32     0  02:47        1.59
  YS02001918           JUNCTION     0.30     1.29     8.36     0  02:47        1.27
  YS02001619           JUNCTION     1.29     1.58     8.51     0  02:30        1.48
  YS02001629           JUNCTION     1.64     1.85     8.40     0  02:33        1.84
  YS02001641           JUNCTION     1.74     1.94     8.38     0  02:40        1.93
  YS02001644           JUNCTION     1.74     1.92     8.35     0  02:39        1.92
  YS02001652           JUNCTION     1.59     2.09     8.69     0  02:52        1.85
  YS02001655           JUNCTION     1.35     2.05     8.90     0  04:17        1.64
  YS02001920           JUNCTION     0.40     1.38     8.39     0  02:47        1.35
  YS02001923           JUNCTION     0.24     1.14     8.40     0  02:47        1.11
  YS02001926           JUNCTION     0.29     0.98     8.42     0  02:47        0.94
  YS02001929           JUNCTION     0.17     0.73     8.42     0  02:47        0.68
  YS02001658           JUNCTION     1.08     2.05     9.20     0  02:48        1.45
  YS02001661           JUNCTION     0.85     2.08     9.49     0  02:48        1.36
  YS02001664           JUNCTION     0.38     0.58     8.50     0  02:42        0.56
  YS02001622           JUNCTION     1.31     1.53     8.44     0  02:30        1.50
  YS02001633           JUNCTION     1.73     1.95     8.41     0  02:39        1.94
  YS02001649           JUNCTION     1.79     2.05     8.44     0  02:43        2.05
  YS02001757           JUNCTION     1.91     2.20     8.46     0  02:32        2.17
  YS02001895           JUNCTION     0.53     1.57     8.31     0  02:56        1.56
  YS02001625           JUNCTION     1.59     1.78     8.38     0  02:32        1.78
  YS02163301           JUNCTION     1.67     1.88     8.40     0  02:39        1.88
  YS02163601           JUNCTION     1.78     2.00     8.39     0  02:39        1.98
  YS02164001           JUNCTION     1.72     1.93     8.38     0  02:39        1.91
  YS02001647           JUNCTION     1.57     1.80     8.41     0  02:48        1.79
  YSB1154              JUNCTION     0.26     0.57     9.62     0  03:01        0.57
  YSB6556              JUNCTION     0.15     0.45     9.62     0  03:02        0.45
  YSB1174              JUNCTION     0.21     0.52     9.62     0  03:01        0.51
  YSB1171              JUNCTION     0.41     0.72     9.62     0  03:01        0.72
  YS02006553           JUNCTION     0.97     1.97     8.25     0  03:00        1.96
  YS02006561           JUNCTION     0.32     1.09     7.75     0  02:58        1.08
  YS02006556           JUNCTION     0.93     1.93     8.24     0  02:58        1.92
  YS02006558           JUNCTION     0.97     1.98     8.24     0  03:00        1.97
  YS02001783           JUNCTION     0.53     1.48     7.62     0  02:59        1.47
  YS02001784           JUNCTION     0.55     1.48     7.55     0  02:39        1.41
  YS02001786           JUNCTION     0.48     1.60     7.63     0  02:39        1.26
  YS02001788           JUNCTION     0.40     1.63     7.60     0  02:39        1.13
  YS02001790           JUNCTION     0.50     1.96     7.60     0  02:38        1.29
  YS02001791           JUNCTION     0.45     1.72     7.19     0  02:38        1.27
  YS02001793           JUNCTION     0.59     2.61     7.44     0  04:38        1.80
  WSC                  OUTFALL      0.36     0.48     1.15     0  03:07        0.48
  JK-storage           STORAGE      2.61     5.80     6.60     0  02:38        5.80
  CC-storage           STORAGE      1.17     1.42     8.42     0  03:12        1.42
  XR-storage           STORAGE      6.70     7.72     5.72     0  02:57        7.72
  
  
  *******************
  Node Inflow Summary
  *******************
  
  -------------------------------------------------------------------------------------------------
                                  Maximum  Maximum                  Lateral       Total        Flow
                                  Lateral    Total  Time of Max      Inflow      Inflow     Balance
                                   Inflow   Inflow   Occurrence      Volume      Volume       Error
  Node                 Type           LPS      LPS  days hr:min    10^6 ltr    10^6 ltr     Percent
  -------------------------------------------------------------------------------------------------
  WS02001211           JUNCTION      7.35   390.29     0  03:16       0.207          10       0.397
  WS02001212           JUNCTION      0.00   393.22     0  03:16           0        9.99       0.234
  WS02001213           JUNCTION      0.00   395.74     0  03:16           0        9.96       0.274
  WS02003069           JUNCTION      0.32  1328.80     0  03:05     0.00902        20.6       0.139
  WS02003072           JUNCTION      0.00  1328.52     0  03:06           0        20.6       0.174
  WS02003073           JUNCTION      1.82  1330.63     0  03:06      0.0514        20.6       0.197
  WS02003060           JUNCTION     16.53  1328.29     0  03:04       0.466        20.6       0.133
  WS02003066           JUNCTION      0.00   938.59     0  03:04           0        10.3       0.030
  WS02003059           JUNCTION      0.00   398.67     0  03:15           0        9.94       0.382
  WS02003067           JUNCTION      0.00   938.05     0  03:04           0        10.3       0.068
  WS02004401           JUNCTION      0.00   939.69     0  03:03           0        10.5       0.156
  WS02004402           JUNCTION      0.00   940.31     0  03:02           0        10.4       0.150
  WS02004403           JUNCTION      0.00   940.15     0  03:03           0        10.4       0.141
  WS02004404           JUNCTION      0.16   940.36     0  03:02     0.00457        10.4       0.108
  WS02004406           JUNCTION      0.00   940.53     0  03:02           0        10.4       0.266
  WS02004409           JUNCTION      0.00   939.78     0  03:03           0        10.4       0.098
  WS02004410           JUNCTION      0.00   938.72     0  03:03           0        10.3       0.117
  WS02004411           JUNCTION      0.00   937.95     0  03:03           0        10.3       0.124
  WS02004412           JUNCTION      0.00   937.60     0  03:03           0        10.3       0.141
  WS02004413           JUNCTION      0.00   937.93     0  03:04           0        10.3       0.221
  WS02004405           JUNCTION      0.04   941.12     0  03:03     0.00107        10.4       0.166
  WS02006109           JUNCTION      1.23   915.48     0  03:03      0.0347        10.5       0.183
  WS02006110           JUNCTION      0.00   915.25     0  03:02           0        10.5       0.158
  WS02006111           JUNCTION      0.00   915.64     0  03:03           0        10.4       0.026
  WS02006112           JUNCTION     30.67   939.35     0  03:02      0.0853        10.5       0.214
  WS02006113           JUNCTION      0.00   915.38     0  03:02           0        10.4       0.073
  WS02006115           JUNCTION      0.00   939.24     0  03:02           0        10.5       0.133
  WS02006116           JUNCTION      0.00   939.90     0  03:02           0        10.5       0.135
  WS02006230           JUNCTION     10.28   533.27     0  06:30        0.29        8.04       0.148
  WS02006231           JUNCTION      0.00   522.68     0  06:30           0        7.76       0.085
  WS02006232           JUNCTION      0.00   523.17     0  06:30           0        7.77       0.192
  WS02006234           JUNCTION      0.00   523.46     0  06:30           0        7.78       0.074
  WS02006235           JUNCTION      0.00   524.38     0  06:31           0        7.82       0.116
  WS02006238           JUNCTION      0.00   414.44     0  07:20           0         4.5       0.139
  WS02006240           JUNCTION      0.00   413.32     0  07:20           0        4.48       0.222
  WS02006242           JUNCTION      0.00   413.71     0  07:20           0        4.48       0.280
  WS02006243           JUNCTION      0.00   414.14     0  07:20           0        4.47       0.069
  WS02006245           JUNCTION      0.00   414.44     0  07:20           0        4.48       0.218
  WS02006247           JUNCTION      0.00   414.85     0  07:20           0        4.48       0.142
  WS02006248           JUNCTION      0.00   415.95     0  07:20           0        4.49       0.098
  WS02006249           JUNCTION      0.00   437.20     0  03:20           0        4.96       0.179
  WS02006239           JUNCTION      0.00   413.50     0  07:20           0        4.49       0.075
  WS02006251           JUNCTION      0.08   436.16     0  03:20     0.00217        5.02       0.172
  WS02006252           JUNCTION      0.00   400.00     0  04:50           0         4.5       0.011
  WS02006253           JUNCTION      3.75   143.70     0  03:01      0.0103       0.521       0.623
  WS02006256           JUNCTION      0.00   983.00     0  00:00           0          10      -0.003
  WS02004138           JUNCTION      0.00   380.00     0  00:00           0        9.86       0.063
  WS02004139           JUNCTION      0.32   396.51     0  00:00     0.00905        9.86       0.454
  WS02004407           JUNCTION      0.00   940.28     0  03:02           0        10.4       0.046
  WS02006228           JUNCTION      0.00   914.06     0  03:02           0        10.4       0.135
  WS02006229           JUNCTION      0.00   919.25     0  03:01           0        10.5       0.106
  WS02006280           JUNCTION      0.00   680.12     0  03:02           0        2.43       0.012
  WS02006284           JUNCTION      0.10   678.98     0  03:02      0.0027        2.43       0.044
  WS02006287           JUNCTION      0.00   677.60     0  03:02           0        2.43       0.032
  WSF200               JUNCTION      0.00   938.78     0  03:04           0        10.3       0.025
  HS02004901           JUNCTION     37.63    37.63     0  03:01       0.103       0.103       1.742
  HS02004881           JUNCTION     14.26   140.53     0  03:01      0.0422       0.463       0.116
  HS02004876           JUNCTION     25.66   127.63     0  03:01      0.0814       0.422       0.130
  HS02004870           JUNCTION     26.26   103.58     0  03:01      0.0799        0.34       0.036
  HS02004862           JUNCTION     25.49    79.36     0  03:01      0.0888       0.261       0.068
  HS02004856           JUNCTION     19.64    55.41     0  03:01      0.0601       0.173       0.841
  HS02004852           JUNCTION      0.00    37.84     0  03:01           0       0.113       0.053
  HS02004848           JUNCTION     55.75    55.75     0  03:01       0.197       0.197       0.029
  HS02004842           JUNCTION      0.00    16.84     0  03:01           0       0.097      15.491
  HS02004837           JUNCTION     50.35    65.69     0  03:01       0.318       0.402       0.205
  HS02004830           JUNCTION      0.15    64.79     0  03:01     0.00423       0.392       0.316
  HS02004824           JUNCTION     65.57   128.44     0  03:01       0.251       0.642       0.086
  HS02004817           JUNCTION      0.60   124.46     0  03:01      0.0169       0.658       2.599
  HS02004807           JUNCTION     48.45   165.80     0  03:01       0.147       0.788       0.555
  HS02004802           JUNCTION      0.00   165.31     0  03:04           0       0.785       0.508
  HS02004799           JUNCTION     38.67   446.01     0  03:01       0.119        1.42       0.191
  HS02004792           JUNCTION    184.82   411.76     0  03:01        0.54         1.3       0.034
  HS02004788           JUNCTION     58.68   233.43     0  03:02       0.219       0.758       0.053
  HS02004785           JUNCTION      0.15   182.19     0  03:01     0.00423        0.54       0.094
  HS02004777           JUNCTION      0.03   184.99     0  03:01    0.000846       0.541       0.972
  HS02004770           JUNCTION    154.22   188.93     0  03:01       0.441       0.542       0.578
  HS02004480           JUNCTION      0.00   517.17     0  03:01           0        1.66       0.068
  HS02004479           JUNCTION      0.00    75.44     0  03:02           0       0.258       0.286
  HS02004478           JUNCTION      0.00   677.04     0  03:02           0        2.43       0.010
  YS02001745           JUNCTION    438.14   438.14     0  03:01        3.01        3.02       0.374
  YS02001748           JUNCTION      0.04   567.20     0  02:32     0.00127        3.01       0.732
  YS02001751           JUNCTION      0.01   443.86     0  03:01     0.00031        2.98       0.796
  YS02001754           JUNCTION      0.26   443.81     0  03:01     0.00733        2.96       0.839
  YS02001762           JUNCTION      0.00   313.07     0  02:43           0         1.9       1.145
  YS02001765           JUNCTION      0.00   313.96     0  02:43           0         1.9       1.308
  YS02001767           JUNCTION      0.54   313.94     0  02:43      0.0151        1.92       1.898
  YS02001770           JUNCTION    552.50   675.76     0  03:02        3.37        3.83       0.835
  YS02001774           JUNCTION      0.00   675.66     0  03:02           0        2.36       1.090
  YS02001779           JUNCTION      0.01   675.84     0  03:02    0.000141        2.33       0.678
  YS02001882           JUNCTION      0.00    50.04     0  02:40           0      0.0246      10.427
  YS02001884           JUNCTION      0.00    88.38     0  02:40           0      0.0616      11.028
  YS02001759           JUNCTION    536.49   618.43     0  02:43        3.11        4.51       0.508
  YS02001887           JUNCTION    679.97   679.97     0  03:01        3.56         3.6       0.241
  YS02001890           JUNCTION      0.00   680.37     0  03:01           0        3.55       0.269
  YS02001898           JUNCTION      0.00   518.06     0  03:01           0        3.45       0.081
  YS02001901           JUNCTION      0.00   518.03     0  03:03           0        3.45       0.212
  YS02001904           JUNCTION      0.00   518.03     0  03:00           0        3.44       0.190
  YS02001907           JUNCTION      0.00  1103.16     0  03:01           0        7.77       0.321
  YS02001910           JUNCTION      0.00   586.55     0  03:01           0        4.34       0.274
  YS02001915           JUNCTION    389.26   586.48     0  03:01        2.52        4.38       0.145
  YS02001918           JUNCTION      0.00   259.14     0  02:48           0        1.88       0.077
  YS02001619           JUNCTION    380.66   380.66     0  03:01        2.51        2.51       0.486
  YS02001629           JUNCTION      0.00   196.84     0  02:39           0        1.59       1.846
  YS02001641           JUNCTION      0.00   415.25     0  02:39           0        4.45       0.476
  YS02001644           JUNCTION    416.76  1524.57     0  03:01         2.9        10.4       0.251
  YS02001652           JUNCTION      0.00   500.65     0  03:01           0        2.62       0.900
  YS02001655           JUNCTION      0.15   499.97     0  03:01     0.00434        2.65       0.926
  YS02001920           JUNCTION      2.87   258.90     0  02:48      0.0809        1.86       0.156
  YS02001923           JUNCTION      0.04   255.90     0  02:48     0.00106        1.77       0.051
  YS02001926           JUNCTION      0.05   209.99     0  03:01     0.00147        1.76       0.189
  YS02001929           JUNCTION    189.18   189.18     0  03:01        1.75        1.75       0.037
  YS02001658           JUNCTION      0.00   610.69     0  02:29           0        2.68       0.803
  YS02001661           JUNCTION      0.00   678.68     0  02:42           0        3.03      -0.016
  YS02001664           JUNCTION    492.63   492.63     0  03:01        2.67        3.02       0.225
  YS02001622           JUNCTION      0.00   381.55     0  03:01           0         2.5       1.284
  YS02001633           JUNCTION    423.29   423.29     0  03:01        2.99        4.52       0.718
  YS02001649           JUNCTION      0.00   870.24     0  02:39           0        6.16       0.612
  YS02001757           JUNCTION      0.00  1676.52     0  02:40           0        9.94       0.934
  YS02001895           JUNCTION      0.00   517.89     0  03:00           0        3.45       0.152
  YS02001625           JUNCTION      0.00   409.38     0  03:01           0        2.48       1.584
  YS02163301           JUNCTION      0.00   203.18     0  02:32           0        1.57       1.571
  YS02163601           JUNCTION      0.11   414.13     0  02:39      0.0031        4.48       0.680
  YS02164001           JUNCTION      0.00   414.68     0  02:39           0        4.46       0.464
  YS02001647           JUNCTION      0.00   729.40     0  03:10           0        5.18       0.549
  YSB1154              JUNCTION     44.76    44.76     0  03:01       0.144       0.144       1.018
  YSB6556              JUNCTION      0.00    43.29     0  03:01           0       0.145       0.869
  YSB1174              JUNCTION     38.10    38.10     0  03:01       0.106       0.107       1.222
  YSB1171              JUNCTION      0.00    76.93     0  03:01           0       0.257       2.526
  YS02006553           JUNCTION      0.00   709.40     0  03:46           0        6.68       0.239
  YS02006561           JUNCTION      0.00   981.16     0  03:31           0        9.91       0.008
  YS02006556           JUNCTION      0.00   709.50     0  03:46           0        6.69       0.175
  YS02006558           JUNCTION    587.14   981.52     0  03:31        3.28        9.94       0.054
  YS02001783           JUNCTION      0.00   981.10     0  03:31           0        9.91       0.024
  YS02001784           JUNCTION      1.06   982.27     0  03:32      0.0299        9.94       0.038
  YS02001786           JUNCTION      0.06   982.22     0  03:31     0.00159        9.93       0.037
  YS02001788           JUNCTION      0.07   982.36     0  03:31       0.002        9.93       0.022
  YS02001790           JUNCTION      0.15   982.44     0  03:32     0.00437        9.93       0.015
  YS02001791           JUNCTION      0.00   982.43     0  03:31           0        9.93       0.014
  YS02001793           JUNCTION      0.00   982.54     0  03:31           0        9.93      -0.027
  WSC                  OUTFALL       0.00  1330.96     0  03:07           0        20.6       0.000
  JK-storage           STORAGE       0.00   982.68     0  03:31           0        10.1      -9.791
  CC-storage           STORAGE       0.00  1677.49     0  02:41           0        8.31       0.785
  XR-storage           STORAGE    1024.87  1024.87     0  03:01        12.7        13.3      -0.003
  
  
  **********************
  Node Surcharge Summary
  **********************
  
  Surcharging occurs when water rises above the top of the highest conduit.
  ---------------------------------------------------------------------
                                               Max. Height   Min. Depth
                                   Hours       Above Crown    Below Rim
  Node                 Type      Surcharged         Meters       Meters
  ---------------------------------------------------------------------
  WS02004401           JUNCTION        0.48          0.236        1.424
  WS02004402           JUNCTION        0.53          0.225        1.515
  WS02004403           JUNCTION        0.53          0.199        1.831
  WS02004404           JUNCTION        0.75          0.247        2.533
  WS02004406           JUNCTION        0.69          0.165        2.285
  WS02004413           JUNCTION        0.18          0.023        2.177
  WS02004405           JUNCTION        0.72          0.221        2.579
  WS02006109           JUNCTION        4.32          0.835        0.985
  WS02006110           JUNCTION        2.46          0.541        1.309
  WS02006111           JUNCTION        0.13          0.075        1.795
  WS02006112           JUNCTION        3.01          0.558        1.122
  WS02006113           JUNCTION        0.15          0.124        1.806
  WS02006115           JUNCTION        0.34          0.207        2.043
  WS02006116           JUNCTION        0.36          0.201        2.089
  WS02006230           JUNCTION        1.74          0.795        0.775
  WS02006231           JUNCTION        2.29          0.810        0.720
  WS02006232           JUNCTION        4.14          0.921        0.559
  WS02006234           JUNCTION        3.37          0.805        0.435
  WS02006235           JUNCTION        3.60          0.829        0.461
  WS02006238           JUNCTION        3.69          0.837        0.593
  WS02006240           JUNCTION        3.22          0.693        0.697
  WS02006242           JUNCTION        3.30          0.699        0.121
  WS02006243           JUNCTION        2.66          0.570        0.200
  WS02006245           JUNCTION        2.31          0.507        0.343
  WS02006247           JUNCTION        2.33          0.486        0.274
  WS02006248           JUNCTION        1.98          0.380        0.000
  WS02006249           JUNCTION        2.05          0.390        0.000
  WS02006239           JUNCTION        3.31          0.747        0.543
  WS02006251           JUNCTION        1.45          0.267        0.913
  WS02006252           JUNCTION        2.47          0.407        0.693
  WS02006253           JUNCTION        1.48          0.340        2.140
  WS02006256           JUNCTION        6.67          2.050        0.000
  WS02006228           JUNCTION        4.28          0.998        1.202
  YS02001748           JUNCTION        5.22          1.190        0.000
  YS02001751           JUNCTION        5.38          1.190        0.010
  YS02001754           JUNCTION        5.57          1.078        0.072
  YS02001762           JUNCTION        5.75          1.056        0.094
  YS02001765           JUNCTION        5.72          1.015        0.085
  YS02001767           JUNCTION        5.69          0.945        0.085
  YS02001770           JUNCTION        5.68          0.907        0.013
  YS02001774           JUNCTION        5.74          0.996        0.054
  YS02001779           JUNCTION        5.56          0.680        0.000
  YS02001882           JUNCTION        1.09          0.636        0.194
  YS02001884           JUNCTION        1.11          0.674        0.196
  YS02001759           JUNCTION        5.78          1.109        0.101
  YS02001887           JUNCTION        1.18          0.763        0.187
  YS02001890           JUNCTION        1.20          0.760        0.000
  YS02001898           JUNCTION        1.07          0.538        0.202
  YS02001901           JUNCTION        1.15          0.677        0.193
  YS02001904           JUNCTION        1.13          0.640        0.210
  YS02001907           JUNCTION        1.89          0.950        0.000
  YS02001910           JUNCTION        1.24          0.786        0.314
  YS02001915           JUNCTION        1.08          0.607        0.393
  YS02001918           JUNCTION        0.92          0.291        0.519
  YS02001619           JUNCTION        5.37          0.583        0.027
  YS02001629           JUNCTION        5.38          0.470        0.000
  YS02001641           JUNCTION        5.72          0.939        0.161
  YS02001644           JUNCTION        5.73          0.920        0.000
  YS02001652           JUNCTION        5.61          1.061        0.069
  YS02001655           JUNCTION        5.39          1.052        0.148
  YS02001920           JUNCTION        0.95          0.377        0.763
  YS02001658           JUNCTION        5.25          1.054        0.246
  YS02001661           JUNCTION        0.16          1.013        0.377
  YS02001622           JUNCTION        5.41          0.531        0.089
  YS02001633           JUNCTION        5.71          0.931        0.129
  YS02001649           JUNCTION        5.76          1.050        0.000
  YS02001757           JUNCTION        5.86          1.195        0.015
  YS02001895           JUNCTION        1.07          0.568        0.182
  YS02001625           JUNCTION        5.64          0.780        0.000
  YS02163301           JUNCTION        5.68          0.884        0.146
  YS02163601           JUNCTION        5.75          0.996        0.084
  YS02164001           JUNCTION        5.72          0.926        0.174
  YS02001647           JUNCTION        5.62          0.800        0.100
  YS02006553           JUNCTION        1.97          0.969        0.221
  YS02006561           JUNCTION        0.97          0.292        0.858
  YS02006556           JUNCTION        1.47          0.894        0.456
  YS02006558           JUNCTION        1.43          0.878        0.522
  YS02001783           JUNCTION        1.22          0.682        0.918
  YS02001784           JUNCTION        1.20          0.681        0.809
  YS02001786           JUNCTION        1.14          0.795        0.635
  YS02001788           JUNCTION        1.09          0.828        0.652
  YS02001790           JUNCTION        1.61          1.157        0.000
  YS02001791           JUNCTION        1.69          0.920        1.000
  YS02001793           JUNCTION        1.92          1.605        0.995
  
  
  *********************
  Node Flooding Summary
  *********************
  
  Flooding refers to all water that overflows a node, whether it ponds or not.
  --------------------------------------------------------------------------
                                                             Total   Maximum
                                 Maximum   Time of Max       Flood    Ponded
                        Hours       Rate    Occurrence      Volume     Depth
  Node                 Flooded       LPS   days hr:min    10^6 ltr    Meters
  --------------------------------------------------------------------------
  WS02006248              0.08     15.15      0  03:03       0.002     0.000
  WS02006249              1.40    258.64      0  03:02       0.465     0.000
  WS02006256              4.04    978.40      0  00:00       6.649     0.000
  YS02001748              0.01    171.90      0  02:32       0.000     0.000
  YS02001779              2.61    675.71      0  03:02       2.312     0.000
  YS02001890              0.34    163.77      0  03:01       0.085     0.000
  YS02001907              0.80    717.41      0  03:01       1.072     0.000
  YS02001629              0.01      6.10      0  02:33       0.000     0.000
  YS02001644              4.19   1524.48      0  03:01       8.344     0.000
  YS02001649              0.03     35.32      0  02:48       0.001     0.000
  YS02001625              1.40    409.20      0  03:01       0.856     0.000
  YS02001790              0.01    222.67      0  04:40       0.001     0.000
  JK-storage              0.64    763.03      0  02:46       0.989     0.000
  XR-storage              3.49    644.79      0  03:01       2.672     0.000
  
  
  **********************
  Storage Volume Summary
  **********************
  
  --------------------------------------------------------------------------------------------------
                         Average     Avg  Evap Exfil       Maximum     Max    Time of Max    Maximum
                          Volume    Pcnt  Pcnt  Pcnt        Volume    Pcnt     Occurrence    Outflow
  Storage Unit           1000 m3    Full  Loss  Loss       1000 m3    Full    days hr:min        LPS
  --------------------------------------------------------------------------------------------------
  JK-storage               0.131      45     0     0         0.291     100       0  02:38     983.00
  CC-storage               3.252      21     0     0         3.962      25       0  03:12     400.00
  XR-storage               0.804      87     0     0         0.926     100       0  02:57     380.00
  
  
  ***********************
  Outfall Loading Summary
  ***********************
  
  ---------------------------------------------------------------------------------------------------------------------------------
                         Flow       Avg       Max       Total         Total         Total         Total         Total         Total
                         Freq      Flow      Flow      Volume           COD            SS            TN            TP         NH4-N
  Outfall Node           Pcnt       LPS       LPS    10^6 ltr            kg            kg            kg            kg            kg
  ---------------------------------------------------------------------------------------------------------------------------------
  WSC                   99.98    826.67   1330.96      20.564      2436.530      4221.962       149.556        17.464        90.153
  ---------------------------------------------------------------------------------------------------------------------------------
  System                99.98    826.67   1330.96      20.564      2436.530      4221.962       149.556        17.464        90.153
  
  
  ********************
  Link Flow Summary
  ********************
  
  -----------------------------------------------------------------------------
                                 Maximum  Time of Max   Maximum    Max/    Max/
                                  |Flow|   Occurrence   |Veloc|    Full    Full
  Link                 Type          LPS  days hr:min     m/sec    Flow   Depth
  -----------------------------------------------------------------------------
  WS02003066WSF200     CONDUIT    938.78     0  03:04      3.00    0.16    0.32
  WS02006287WS02006284 CONDUIT    678.88     0  03:02      2.38    0.31    0.39
  WS02006284WS02006280 CONDUIT    680.12     0  03:02      2.62    0.28    0.37
  WS02006280WS02006229 CONDUIT    680.15     0  03:02      3.91    0.15    0.50
  WS02006229WS02006228 CONDUIT    914.06     0  03:02      1.82    3.03    1.00
  WS02006256WS02006235 CONDUIT    288.60     0  00:00      4.23    3.05    1.00
  WS02006253WS02006251 CONDUIT    143.88     0  03:01      0.63    0.43    1.00
  WS02006252WS02006251 CONDUIT    404.69     0  06:30      3.22    1.49    1.00
  WS02006251WS02006249 CONDUIT    437.20     0  03:20      1.14    1.26    1.00
  WS02006249WS02006248 CONDUIT    415.95     0  07:20      1.14    2.28    1.00
  WS02006248WS02006247 CONDUIT    414.85     0  07:20      1.11    0.90    1.00
  WS02006247WS02006245 CONDUIT    414.44     0  07:20      1.08    3.29    1.00
  WS02006245WS02006243 CONDUIT    414.14     0  07:20      1.10    1.22    1.00
  WS02006243WS02006242 CONDUIT    413.71     0  07:20      1.07    0.88    1.00
  WS02006242WS02006240 CONDUIT    413.32     0  07:20      1.07    1.64    1.00
  WS02006240WS02006239 CONDUIT    413.50     0  07:20      1.07    1.30    1.00
  WS02006239WS02006238 CONDUIT    414.44     0  07:20      1.08    1.33    1.00
  WS02006238WS02006235 CONDUIT    416.53     0  07:20      1.46    0.93    1.00
  WS02006235WS02006234 CONDUIT    523.46     0  06:30      1.36    5.52    1.00
  WS02006234WS02006232 CONDUIT    523.17     0  06:30      1.39    1.06    1.00
  WS02006232WS02006231 CONDUIT    522.68     0  06:30      1.36    1.10    1.00
  WS02006231WS02006230 CONDUIT    522.99     0  06:30      1.41    7.93    1.00
  WS02006230WS02006229 CONDUIT    535.30     0  06:30      1.39   11.91    1.00
  WS02006228WS02006109 CONDUIT    914.25     0  03:03      1.82    3.99    1.00
  WS02006116WS02004401 CONDUIT    939.69     0  03:03      1.20    1.30    1.00
  WS02006115WS02006116 CONDUIT    939.90     0  03:02      1.20    1.21    1.00
  WS02006113WS02006111 CONDUIT    915.64     0  03:03      2.59    1.10    1.00
  WS02006112WS02006115 CONDUIT    939.24     0  03:02      1.20    0.55    1.00
  WS02006111WS02006112 CONDUIT    916.29     0  03:03      1.82    0.44    1.00
  WS02006110WS02006113 CONDUIT    915.38     0  03:02      1.82    0.83    1.00
  WS02006109WS02006110 CONDUIT    915.25     0  03:02      1.82    1.76    1.00
  WS02004411WS02004412 CONDUIT    937.60     0  03:03      1.24    1.33    0.92
  WS02004401WS02004402 CONDUIT    940.31     0  03:02      1.20    1.13    1.00
  WS02004413WS02003067 CONDUIT    938.05     0  03:04      1.55    0.40    0.72
  WS02004412WS02004413 CONDUIT    937.93     0  03:04      1.22    0.63    0.95
  WS02004410WS02004411 CONDUIT    937.95     0  03:03      1.23    1.28    0.94
  WS02004409WS02004410 CONDUIT    938.72     0  03:03      1.22    1.21    0.95
  WS02004407WS02004409 CONDUIT    939.78     0  03:03      1.68    0.33    0.68
  WS02004406WS02004407 CONDUIT    940.28     0  03:02      1.60    0.42    0.70
  WS02004405WS02004406 CONDUIT    940.53     0  03:02      1.20    1.86    1.00
  WS02004404WS02004405 CONDUIT    941.08     0  03:03      1.20    9.22    1.00
  WS02004403WS02004404 CONDUIT    940.20     0  03:02      1.20    0.68    1.00
  WS02004402WS02004403 CONDUIT    940.15     0  03:03      1.20    1.35    1.00
  WS02004139WS02001211 CONDUIT    382.95     0  03:16      0.90    0.48    0.64
  WS02004138WS02004139 CONDUIT    396.19     0  00:00      3.65    0.08    0.47
  WS02003067WS02003066 CONDUIT    938.59     0  03:04      1.65    0.30    0.50
  WS02001213WS02003059 CONDUIT    398.67     0  03:15      0.88    0.66    0.87
  WS02001212WS02001213 CONDUIT    395.74     0  03:16      1.32    0.61    0.56
  WS02001211WS02001212 CONDUIT    393.22     0  03:16      0.78    0.30    0.71
  WS02003072WS02003073 CONDUIT   1328.81     0  03:06      1.96    2.87    0.58
  WS02003069WS02003072 CONDUIT   1328.52     0  03:06      1.82    0.64    0.62
  WS02003060WS02003069 CONDUIT   1328.48     0  03:05      2.03    0.52    0.56
  WS02003059WS02003060 CONDUIT    402.31     0  04:40      0.95    0.26    0.77
  HS02004901HS02004770 CONDUIT     37.22     0  03:01      0.10    0.14    0.53
  HS02004876HS02004881 CONDUIT    127.63     0  03:01      1.21    1.36    0.15
  HS02004870HS02004876 CONDUIT    103.09     0  03:01      0.82    0.07    0.18
  HS02004842HS02004848 CONDUIT     16.84     0  03:01      0.07    0.01    0.33
  HS02004837HS02004842 CONDUIT     17.90     0  03:03      0.42    0.01    0.35
  HS02004830HS02004837 CONDUIT     64.64     0  03:01      0.67    0.06    0.14
  HS02004824HS02004830 CONDUIT     64.12     0  03:02      0.62    0.08    0.16
  HS02004817HS02004824 CONDUIT    123.86     0  03:01      0.31    0.06    0.58
  HS02004770HS02004777 CONDUIT    184.96     0  03:01      0.49    0.34    0.54
  HS02004799HS02004480 CONDUIT    444.31     0  03:01      1.07    0.56    0.60
  HS02004792HS02004799 CONDUIT    408.42     0  03:01      1.20    0.25    0.49
  HS02004788HS02004792 CONDUIT    232.94     0  03:02      1.28    0.15    0.26
  HS02004785HS02004788 CONDUIT    181.76     0  03:02      0.91    1.37    0.29
  HS02004777HS02004785 CONDUIT    182.04     0  03:01      0.57    0.22    0.45
  HS02004480HS02004478 CONDUIT    517.30     0  03:01      1.55    2.18    0.48
  HS02004479HS02004480 CONDUIT     77.30     0  03:02      0.30    0.07    0.57
  HS02004862HS02004870 CONDUIT     79.02     0  03:01      0.80    0.09    0.14
  HS02004848HS02004852 CONDUIT     37.84     0  03:01      0.53    0.04    0.10
  HS02004856HS02004862 CONDUIT     54.77     0  03:01      0.59    0.05    0.13
  HS02004852HS02004856 CONDUIT     37.76     0  03:02      0.34    0.04    0.16
  HS02004802HS02004478 CONDUIT    170.16     0  03:04      0.54    0.15    0.48
  HS02004478WS02006287 CONDUIT    677.60     0  03:02      2.11    0.19    0.36
  HS02004817HS02004807 CONDUIT    128.12     0  03:04      0.25    0.08    0.75
  HS02004807HS02004802 CONDUIT    165.31     0  03:04      0.46    0.32    0.53
  YS02001759YS02001757 CONDUIT    618.07     0  02:43      0.79    0.44    1.00
  YS02001762YS02001759 CONDUIT    311.97     0  02:43      0.40    0.36    1.00
  YS02001765YS02001762 CONDUIT    313.07     0  02:43      0.40    0.29    1.00
  YS02001770YS02001767 CONDUIT    313.41     0  02:43      0.40    1.24    1.00
  YS02001774YS02001770 CONDUIT    675.66     0  03:02      0.86    0.43    1.00
  YS02001779YS02001774 CONDUIT    675.83     0  03:02      0.86    0.34    1.00
  YS02001649YS02001757 CONDUIT    871.82     0  02:40      1.11    0.53    1.00
  YS02001767YS02001765 CONDUIT    313.96     0  02:43      0.40    0.39    1.00
  YS02006561YS02001783 CONDUIT    981.10     0  03:31      2.15    0.51    1.00
  YS02001783YS02001784 CONDUIT    981.21     0  03:32      1.95    1.35    1.00
  YS02001784YS02001785 CONDUIT    982.17     0  03:31      1.95    2.29    1.00
  YS02001788YS02001790 CONDUIT    982.29     0  03:32      2.44    0.72    1.00
  YS02001790YS02001791 CONDUIT    982.43     0  03:31      2.91    1.07    1.00
  YS02001791YS02001793 CONDUIT    982.54     0  03:31      5.75    0.42    1.00
  YS02001910YS02001907 CONDUIT    587.00     0  03:01      0.75    0.33    1.00
  YS02001786YS02001788 CONDUIT    982.29     0  03:31      2.31    1.89    1.00
  YS02001915YS02001910 CONDUIT    586.55     0  03:01      0.75    0.29    1.00
  YS02001918YS02001915 CONDUIT    259.45     0  02:48      0.44    0.14    1.00
  YS02001923YS02001920 CONDUIT    256.03     0  02:48      0.75    0.11    1.00
  YS02001926YS02001923 CONDUIT    255.86     0  02:48      0.86    0.37    0.93
  YS02001929YS02001926 CONDUIT    209.94     0  03:01      0.92    0.10    0.84
  YS02001920YS02001918 CONDUIT    259.14     0  02:48      0.72    0.25    1.00
  YS02001629YS02163301 CONDUIT    203.18     0  02:32      0.26    0.25    1.00
  YS02001619YS02001622 CONDUIT    381.55     0  03:01      0.59    0.56    1.00
  YS02001622YS02001625 CONDUIT    380.96     0  03:01      0.49    0.20    1.00
  YS02001625YS02001629 CONDUIT    196.84     0  02:39      0.25    0.09    1.00
  YS02163301YS02001633 CONDUIT    205.73     0  02:32      0.26    0.19    1.00
  YS02163601YS02164001 CONDUIT    414.68     0  02:39      0.53    0.37    1.00
  YS02164001YS02001641 CONDUIT    415.25     0  02:39      0.53    0.57    1.00
  YS02001641YS02001644 CONDUIT    414.56     0  02:39      0.53    1.34    1.00
  YS02001647YS02001649 CONDUIT    729.40     0  03:10      0.93    0.39    1.00
  YS02006553YS02006556 CONDUIT    709.50     0  03:46      0.90    0.61    1.00
  YS02006556YS02006558 CONDUIT    709.66     0  03:46      0.90    0.56    1.00
  YSB6556YSB1171       CONDUIT     42.82     0  03:02      0.13    0.04    0.82
  YS02001907YS02006553 CONDUIT    709.40     0  03:46      0.79    0.83    1.00
  YS02006558YS02006561 CONDUIT    981.16     0  03:31      3.47    2.17    1.00
  YS02001633YS02163601 CONDUIT    414.02     0  02:39      0.53    0.43    1.00
  YS02001644YS02001647 CONDUIT    729.46     0  03:10      0.93    0.43    1.00
  YS02001745YS02001748 CONDUIT    567.16     0  02:32      1.46    0.22    0.98
  YS02001748YS02001751 CONDUIT    443.85     0  03:01      1.03    0.22    1.00
  YS02001751YS02001754 CONDUIT    443.55     0  03:01      0.88    0.21    1.00
  YS02001754YS02001757 CONDUIT    443.47     0  03:01      0.56    0.18    1.00
  YS02001882YS02001884 CONDUIT     50.04     0  02:40      0.12    0.06    1.00
  YS02001884YS02001887 CONDUIT     88.38     0  02:40      0.11    0.12    1.00
  YS02001890YS02001895 CONDUIT    517.89     0  03:00      0.66    0.24    1.00
  YS02001895YS02001898 CONDUIT    518.06     0  03:01      0.66    0.90    1.00
  YS02001898YS02001901 CONDUIT    518.03     0  03:03      0.66    0.33    1.00
  YS02001901YS02001904 CONDUIT    518.03     0  03:00      0.66    0.80    1.00
  YS02001904YS02001907 CONDUIT    518.25     0  03:03      0.66    0.18    1.00
  YS02001887YS02001890 CONDUIT    680.37     0  03:01      0.87    1.16    1.00
  YS02001652YS02001649 CONDUIT    500.38     0  03:01      0.64    0.25    1.00
  YS02001655YS02001652 CONDUIT    500.65     0  03:01      0.94    0.24    1.00
  YS02001658YS02001655 CONDUIT    499.82     0  03:01      1.18    0.21    1.00
  YS02001661YS02001658 CONDUIT    610.69     0  02:29      1.52    0.24    1.00
  YS02001664YS02001661 CONDUIT    678.68     0  02:42      1.42    0.21    0.77
  YSB1154YSB6556       CONDUIT     43.29     0  03:01      0.18    0.08    0.73
  YSB1174YSB1171       CONDUIT     36.65     0  03:01      0.11    0.06    0.85
  YSB1171HS02004479    CONDUIT     75.44     0  03:02      0.54    0.05    0.68
  HS02004881HS02006253 CONDUIT    140.47     0  03:01      2.35    0.03    0.54
  YS02001793JiankangQianchi CONDUIT    982.68     0  03:31     16.33    0.08    1.00
  YS02001757CaochengTiaoxuchi CONDUIT   1677.49     0  02:41      2.17    0.74    1.00
  WSF200WS02003060     CONDUIT    939.17     0  03:04      1.93    0.21    0.45
  1                    CONDUIT   1330.96     0  03:07      3.59    0.46    0.48
  CC-Pump-1            PUMP       200.00     0  03:00              1.00
  CC-Pump-2            PUMP       200.00     0  04:50              1.00
  JK-Pump-1            PUMP       300.00     0  00:00              1.00
  JK-Pump-2            PUMP       683.00     0  00:00              1.00
  XR-Pump-1            PUMP        95.00     0  00:00              1.00
  XR-Pump-2            PUMP        95.00     0  00:00              1.00
  XR-Pump-3            PUMP        95.00     0  00:00              1.00
  XR-Pump-4            PUMP        95.00     0  00:00              1.00
  
  
  ***************************
  Flow Classification Summary
  ***************************
  
  -------------------------------------------------------------------------------------
                      Adjusted    ---------- Fraction of Time in Flow Class ---------- 
                       /Actual         Up    Down  Sub   Sup   Up    Down  Norm  Inlet 
  Conduit               Length    Dry  Dry   Dry   Crit  Crit  Crit  Crit  Ltd   Ctrl  
  -------------------------------------------------------------------------------------
  WS02003066WSF200        1.00   0.01  0.06  0.00  0.00  0.93  0.00  0.00  0.38  0.00
  WS02006287WS02006284    1.00   0.03  0.01  0.00  0.62  0.34  0.00  0.00  0.65  0.00
  WS02006284WS02006280    1.00   0.03  0.00  0.00  0.00  0.00  0.00  0.97  0.00  0.00
  WS02006280WS02006229    1.00   0.03  0.00  0.00  0.01  0.02  0.00  0.94  0.01  0.00
  WS02006229WS02006228    1.00   0.00  0.00  0.00  1.00  0.00  0.00  0.00  0.00  0.00
  WS02006256WS02006235    1.00   0.00  0.00  0.00  1.00  0.00  0.00  0.00  0.00  0.00
  WS02006253WS02006251    1.00   0.01  0.02  0.00  0.97  0.00  0.00  0.00  0.00  0.00
  WS02006252WS02006251    1.00   0.17  0.00  0.00  0.13  0.00  0.70  0.00  0.00  0.00
  WS02006251WS02006249    1.00   0.00  0.00  0.00  1.00  0.00  0.00  0.00  0.23  0.00
  WS02006249WS02006248    1.00   0.00  0.01  0.00  0.91  0.00  0.08  0.00  0.00  0.00
  WS02006248WS02006247    1.00   0.01  0.00  0.00  0.98  0.00  0.00  0.01  0.12  0.00
  WS02006247WS02006245    1.00   0.01  0.00  0.00  0.97  0.00  0.00  0.02  0.00  0.00
  WS02006245WS02006243    1.00   0.00  0.00  0.00  0.95  0.00  0.00  0.04  0.01  0.00
  WS02006243WS02006242    1.00   0.00  0.00  0.00  1.00  0.00  0.00  0.00  0.22  0.00
  WS02006242WS02006240    1.00   0.00  0.00  0.00  1.00  0.00  0.00  0.00  0.00  0.00
  WS02006240WS02006239    1.00   0.00  0.00  0.00  0.95  0.00  0.00  0.05  0.01  0.00
  WS02006239WS02006238    1.00   0.00  0.00  0.00  1.00  0.00  0.00  0.00  0.14  0.00
  WS02006238WS02006235    1.00   0.00  0.00  0.00  1.00  0.00  0.00  0.00  0.00  0.00
  WS02006235WS02006234    1.00   0.00  0.00  0.00  0.96  0.00  0.04  0.00  0.00  0.00
  WS02006234WS02006232    1.00   0.00  0.00  0.00  1.00  0.00  0.00  0.00  0.11  0.00
  WS02006232WS02006231    1.00   0.00  0.00  0.00  1.00  0.00  0.00  0.00  0.00  0.00
  WS02006231WS02006230    1.00   0.00  0.00  0.00  0.75  0.00  0.25  0.00  0.00  0.00
  WS02006230WS02006229    1.00   0.00  0.00  0.00  1.00  0.00  0.00  0.00  0.01  0.00
  WS02006228WS02006109    1.00   0.00  0.00  0.00  1.00  0.00  0.00  0.00  0.00  0.00
  WS02006116WS02004401    1.00   0.01  0.00  0.00  0.99  0.00  0.00  0.00  0.01  0.00
  WS02006115WS02006116    1.00   0.01  0.00  0.00  0.97  0.00  0.00  0.02  0.01  0.00
  WS02006113WS02006111    1.00   0.01  0.00  0.00  0.03  0.96  0.00  0.00  0.13  0.00
  WS02006112WS02006115    1.00   0.01  0.00  0.00  0.99  0.00  0.00  0.00  0.00  0.00
  WS02006111WS02006112    1.00   0.01  0.00  0.00  0.99  0.00  0.00  0.00  0.89  0.00
  WS02006110WS02006113    1.00   0.00  0.00  0.00  0.99  0.00  0.00  0.00  0.00  0.00
  WS02006109WS02006110    1.00   0.00  0.00  0.00  1.00  0.00  0.00  0.00  0.00  0.00
  WS02004411WS02004412    1.00   0.05  0.00  0.00  0.95  0.00  0.00  0.00  0.00  0.00
  WS02004401WS02004402    1.00   0.01  0.00  0.00  0.99  0.00  0.00  0.00  0.01  0.00
  WS02004413WS02003067    1.00   0.05  0.01  0.00  0.00  0.00  0.94  0.00  0.00  0.00
  WS02004412WS02004413    1.00   0.05  0.00  0.00  0.95  0.00  0.00  0.00  0.00  0.00
  WS02004410WS02004411    1.00   0.05  0.00  0.00  0.95  0.00  0.00  0.00  0.00  0.00
  WS02004409WS02004410    1.00   0.05  0.00  0.00  0.95  0.00  0.00  0.00  0.00  0.00
  WS02004407WS02004409    1.00   0.05  0.00  0.00  0.95  0.01  0.00  0.00  0.80  0.00
  WS02004406WS02004407    1.00   0.00  0.05  0.00  0.95  0.00  0.00  0.00  0.00  0.00
  WS02004405WS02004406    1.00   0.00  0.00  0.00  1.00  0.00  0.00  0.00  0.02  0.00
  WS02004404WS02004405    1.00   0.00  0.00  0.00  1.00  0.00  0.00  0.00  0.00  0.00
  WS02004403WS02004404    1.00   0.00  0.01  0.00  0.99  0.00  0.00  0.00  0.02  0.00
  WS02004402WS02004403    1.00   0.01  0.00  0.00  0.99  0.00  0.00  0.00  0.00  0.00
  WS02004139WS02001211    1.00   0.00  0.00  0.00  1.00  0.00  0.00  0.00  0.00  0.00
  WS02004138WS02004139    1.00   0.00  0.00  0.00  1.00  0.00  0.00  0.00  1.00  0.00
  WS02003067WS02003066    1.00   0.06  0.00  0.00  0.93  0.00  0.00  0.00  0.00  0.00
  WS02001213WS02003059    1.00   0.00  0.00  0.00  1.00  0.00  0.00  0.00  0.00  0.00
  WS02001212WS02001213    1.00   0.00  0.00  0.00  0.92  0.00  0.07  0.00  0.00  0.00
  WS02001211WS02001212    1.00   0.00  0.00  0.00  1.00  0.00  0.00  0.00  0.00  0.00
  WS02003072WS02003073    1.00   0.00  0.00  0.00  0.00  0.00  0.00  1.00  0.00  0.00
  WS02003069WS02003072    1.00   0.00  0.00  0.00  1.00  0.00  0.00  0.00  0.09  0.00
  WS02003060WS02003069    1.00   0.00  0.00  0.00  0.99  0.01  0.00  0.00  0.07  0.00
  WS02003059WS02003060    1.00   0.00  0.00  0.00  1.00  0.00  0.00  0.00  0.00  0.00
  HS02004901HS02004770    1.00   0.03  0.00  0.00  0.97  0.00  0.00  0.00  0.00  0.00
  HS02004876HS02004881    1.00   0.01  0.00  0.00  0.92  0.07  0.00  0.00  0.00  0.00
  HS02004870HS02004876    1.00   0.00  0.00  0.00  1.00  0.00  0.00  0.00  0.95  0.00
  HS02004842HS02004848    1.00   0.00  0.03  0.00  0.97  0.00  0.00  0.00  0.54  0.00
  HS02004837HS02004842    1.00   0.00  0.00  0.00  1.00  0.00  0.00  0.00  0.11  0.00
  HS02004830HS02004837    1.00   0.00  0.00  0.00  1.00  0.00  0.00  0.00  0.99  0.00
  HS02004824HS02004830    1.00   0.00  0.00  0.00  1.00  0.00  0.00  0.00  0.01  0.00
  HS02004817HS02004824    1.00   0.00  0.00  0.00  1.00  0.00  0.00  0.00  0.97  0.00
  HS02004770HS02004777    1.00   0.00  0.03  0.00  0.97  0.00  0.00  0.00  0.03  0.00
  HS02004799HS02004480    1.00   0.00  0.01  0.00  0.96  0.00  0.03  0.00  0.00  0.00
  HS02004792HS02004799    1.00   0.00  0.00  0.00  1.00  0.00  0.00  0.00  0.98  0.00
  HS02004788HS02004792    1.00   0.00  0.00  0.00  1.00  0.00  0.00  0.00  0.98  0.00
  HS02004785HS02004788    1.00   0.00  0.00  0.00  1.00  0.00  0.00  0.00  0.00  0.00
  HS02004777HS02004785    1.00   0.00  0.00  0.00  1.00  0.00  0.00  0.00  0.12  0.00
  HS02004480HS02004478    1.00   0.03  0.00  0.00  0.71  0.00  0.00  0.25  0.00  0.00
  HS02004479HS02004480    1.00   0.01  0.00  0.00  0.99  0.00  0.00  0.00  0.12  0.00
  HS02004862HS02004870    1.00   0.00  0.00  0.00  1.00  0.00  0.00  0.00  0.04  0.00
  HS02004848HS02004852    1.00   0.03  0.00  0.00  0.97  0.00  0.00  0.00  0.64  0.00
  HS02004856HS02004862    1.00   0.00  0.04  0.00  0.96  0.00  0.00  0.00  0.83  0.00
  HS02004852HS02004856    1.00   0.03  0.00  0.00  0.97  0.00  0.00  0.00  0.81  0.00
  HS02004802HS02004478    1.00   0.03  0.00  0.00  0.97  0.00  0.00  0.00  0.02  0.00
  HS02004478WS02006287    1.00   0.04  0.00  0.00  0.79  0.17  0.00  0.00  0.65  0.00
  HS02004817HS02004807    1.00   0.00  0.03  0.00  0.97  0.00  0.00  0.00  0.01  0.00
  HS02004807HS02004802    1.00   0.03  0.00  0.00  0.96  0.00  0.00  0.00  0.00  0.00
  YS02001759YS02001757    1.00   0.00  0.00  0.00  1.00  0.00  0.00  0.00  0.16  0.00
  YS02001762YS02001759    1.00   0.00  0.00  0.00  1.00  0.00  0.00  0.00  0.03  0.00
  YS02001765YS02001762    1.00   0.00  0.00  0.00  1.00  0.00  0.00  0.00  0.14  0.00
  YS02001770YS02001767    1.00   0.00  0.00  0.00  1.00  0.00  0.00  0.00  0.00  0.00
  YS02001774YS02001770    1.00   0.00  0.03  0.00  0.97  0.00  0.00  0.00  0.03  0.00
  YS02001779YS02001774    1.00   0.00  0.00  0.00  1.00  0.00  0.00  0.00  0.19  0.00
  YS02001649YS02001757    1.00   0.00  0.00  0.00  1.00  0.00  0.00  0.00  0.16  0.00
  YS02001767YS02001765    1.00   0.00  0.00  0.00  1.00  0.00  0.00  0.00  0.00  0.00
  YS02006561YS02001783    1.00   0.05  0.00  0.00  0.31  0.64  0.00  0.00  0.47  0.00
  YS02001783YS02001784    1.00   0.00  0.05  0.00  0.95  0.00  0.00  0.00  0.00  0.00
  YS02001784YS02001785    1.00   0.00  0.00  0.00  1.00  0.00  0.00  0.00  0.18  0.00
  YS02001788YS02001790    1.00   0.00  0.00  0.00  0.34  0.66  0.00  0.00  0.39  0.00
  YS02001790YS02001791    1.00   0.00  0.00  0.00  0.30  0.70  0.00  0.00  0.50  0.00
  YS02001791YS02001793    1.00   0.00  0.00  0.00  0.33  0.67  0.00  0.00  0.02  0.00
  YS02001910YS02001907    1.00   0.00  0.00  0.00  0.99  0.00  0.00  0.01  0.12  0.00
  YS02001786YS02001788    1.00   0.00  0.00  0.00  0.32  0.68  0.00  0.00  0.00  0.00
  YS02001915YS02001910    1.00   0.00  0.00  0.00  0.99  0.01  0.00  0.00  0.16  0.00
  YS02001918YS02001915    1.00   0.00  0.00  0.00  0.99  0.00  0.00  0.00  0.54  0.00
  YS02001923YS02001920    1.00   0.00  0.00  0.00  1.00  0.00  0.00  0.00  0.82  0.00
  YS02001926YS02001923    1.00   0.00  0.02  0.00  0.15  0.00  0.83  0.00  0.00  0.00
  YS02001929YS02001926    1.00   0.00  0.03  0.00  0.97  0.00  0.00  0.00  0.74  0.00
  YS02001920YS02001918    1.00   0.00  0.00  0.00  1.00  0.00  0.00  0.00  0.00  0.00
  YS02001629YS02163301    1.00   0.04  0.00  0.00  0.96  0.00  0.00  0.00  0.00  0.00
  YS02001619YS02001622    1.00   0.03  0.00  0.00  0.97  0.00  0.00  0.00  0.00  0.00
  YS02001622YS02001625    1.00   0.03  0.00  0.00  0.97  0.00  0.00  0.00  0.05  0.00
  YS02001625YS02001629    1.00   0.03  0.02  0.00  0.93  0.00  0.02  0.00  0.00  0.00
  YS02163301YS02001633    1.00   0.00  0.04  0.00  0.96  0.00  0.00  0.00  0.00  0.00
  YS02163601YS02164001    1.00   0.00  0.02  0.00  0.98  0.00  0.00  0.00  0.00  0.00
  YS02164001YS02001641    1.00   0.00  0.02  0.00  0.98  0.00  0.00  0.00  0.06  0.00
  YS02001641YS02001644    1.00   0.00  0.00  0.00  1.00  0.00  0.00  0.00  0.00  0.00
  YS02001647YS02001649    1.00   0.00  0.04  0.00  0.96  0.00  0.00  0.00  0.01  0.00
  YS02006553YS02006556    1.00   0.00  0.00  0.00  1.00  0.00  0.00  0.00  0.03  0.00
  YS02006556YS02006558    1.00   0.00  0.00  0.00  1.00  0.00  0.00  0.00  0.00  0.00
  YSB6556YSB1171          1.00   0.01  0.02  0.00  0.97  0.00  0.00  0.00  0.00  0.00
  YS02001907YS02006553    1.00   0.00  0.01  0.00  0.99  0.00  0.00  0.00  0.00  0.00
  YS02006558YS02006561    1.00   0.05  0.00  0.00  0.15  0.80  0.00  0.00  0.48  0.00
  YS02001633YS02163601    1.00   0.00  0.00  0.00  1.00  0.00  0.00  0.00  0.15  0.00
  YS02001644YS02001647    1.00   0.00  0.04  0.00  0.96  0.00  0.00  0.00  0.00  0.00
  YS02001745YS02001748    1.00   0.00  0.00  0.00  0.91  0.00  0.00  0.08  0.04  0.00
  YS02001748YS02001751    1.00   0.00  0.00  0.00  0.97  0.03  0.00  0.00  0.15  0.00
  YS02001751YS02001754    1.00   0.00  0.00  0.00  0.95  0.00  0.00  0.05  0.02  0.00
  YS02001754YS02001757    1.00   0.00  0.00  0.00  1.00  0.00  0.00  0.00  0.18  0.00
  YS02001882YS02001884    1.00   0.04  0.00  0.00  0.96  0.00  0.00  0.00  0.00  0.00
  YS02001884YS02001887    1.00   0.02  0.01  0.00  0.97  0.00  0.00  0.00  0.00  0.00
  YS02001890YS02001895    1.00   0.00  0.04  0.00  0.96  0.00  0.00  0.00  0.00  0.00
  YS02001895YS02001898    1.00   0.04  0.00  0.00  0.95  0.00  0.01  0.00  0.00  0.00
  YS02001898YS02001901    1.00   0.04  0.00  0.00  0.96  0.00  0.00  0.00  0.01  0.00
  YS02001901YS02001904    1.00   0.04  0.00  0.00  0.96  0.00  0.00  0.00  0.00  0.00
  YS02001904YS02001907    1.00   0.00  0.04  0.00  0.96  0.00  0.00  0.00  0.00  0.00
  YS02001887YS02001890    1.00   0.00  0.00  0.00  0.99  0.00  0.01  0.00  0.00  0.00
  YS02001652YS02001649    1.00   0.00  0.00  0.00  1.00  0.00  0.00  0.00  0.17  0.00
  YS02001655YS02001652    1.00   0.00  0.00  0.00  0.95  0.00  0.00  0.05  0.02  0.00
  YS02001658YS02001655    1.00   0.00  0.04  0.00  0.94  0.03  0.00  0.00  0.10  0.00
  YS02001661YS02001658    1.00   0.04  0.00  0.00  0.91  0.05  0.00  0.00  0.11  0.00
  YS02001664YS02001661    1.00   0.03  0.00  0.00  0.93  0.04  0.00  0.00  0.20  0.00
  YSB1154YSB6556          1.00   0.03  0.00  0.00  0.97  0.00  0.00  0.00  0.02  0.00
  YSB1174YSB1171          1.00   0.01  0.01  0.00  0.98  0.00  0.00  0.00  0.00  0.00
  YSB1171HS02004479       1.00   0.01  0.00  0.00  0.99  0.00  0.00  0.00  0.10  0.00
  HS02004881HS02006253    1.00   0.01  0.00  0.00  0.76  0.01  0.00  0.21  0.59  0.00
  YS02001793JiankangQianchi    1.00   0.00  0.00  0.00  0.67  0.33  0.00  0.00  0.46  0.00
  YS02001757CaochengTiaoxuchi    1.00   0.00  0.06  0.00  0.94  0.00  0.00  0.00  0.00  0.00
  WSF200WS02003060        1.00   0.00  0.01  0.00  0.98  0.01  0.00  0.00  0.29  0.00
  1                       1.00   0.00  0.00  0.00  0.00  1.00  0.00  0.00  0.58  0.00
  
  
  *************************
  Conduit Surcharge Summary
  *************************
  
  ----------------------------------------------------------------------------
                                                           Hours        Hours 
                         --------- Hours Full --------   Above Full   Capacity
  Conduit                Both Ends  Upstream  Dnstream   Normal Flow   Limited
  ----------------------------------------------------------------------------
  WS02006229WS02006228        4.28      4.35      4.28      5.01         4.28
  WS02006256WS02006235        5.93      5.93      6.66      4.44         0.01
  WS02006253WS02006251        1.93      1.93      1.99      0.01         0.03
  WS02006252WS02006251        1.79      1.79      2.47      1.95         0.01
  WS02006251WS02006249        1.94      1.94      2.05      1.25         1.07
  WS02006249WS02006248        1.98      1.98      2.05      4.03         0.01
  WS02006248WS02006247        2.05      2.05      2.32      0.01         0.01
  WS02006247WS02006245        2.31      2.40      2.31      4.39         2.21
  WS02006245WS02006243        2.39      2.39      2.66      0.23         0.32
  WS02006243WS02006242        2.76      2.76      3.30      0.01         0.01
  WS02006242WS02006240        3.22      3.22      3.45      2.19         0.01
  WS02006240WS02006239        3.25      3.25      3.31      1.22         0.70
  WS02006239WS02006238        3.47      3.48      3.69      1.25         0.87
  WS02006238WS02006235        3.67      3.67      3.83      0.01         0.01
  WS02006235WS02006234        3.37      3.37      3.60      5.90         0.01
  WS02006234WS02006232        3.52      3.52      4.14      1.07         1.06
  WS02006232WS02006231        2.29      2.29      4.14      1.30         0.01
  WS02006231WS02006230        1.74      1.74      2.45      5.96         0.01
  WS02006230WS02006229        4.69      4.89      4.69      6.05         4.69
[...]
  YS02001770YS02001767        5.69      5.69      5.69      0.20         0.67
  YS02001774YS02001770        5.68      5.68      5.74      0.01         0.01
  YS02001779YS02001774        5.56      5.56      5.74      0.01         0.01
  YS02001649YS02001757        5.76      5.76      5.86      0.01         0.01
  YS02001767YS02001765        5.69      5.69      5.72      0.01         0.01
  YS02006561YS02001783        0.97      0.97      1.22      0.01         0.01
  YS02001783YS02001784        1.20      1.22      1.20      1.55         1.19
  YS02001784YS02001785        1.14      1.20      1.14      2.50         1.14
  YS02001788YS02001790        1.09      1.09      1.61      0.01         0.01
  YS02001790YS02001791        1.61      1.61      1.69      1.09         1.07
  YS02001791YS02001793        1.69      1.69      2.00      0.01         0.01
  YS02001910YS02001907        1.24      1.24      1.89      0.01         0.01
  YS02001786YS02001788        1.09      1.14      1.09      2.09         1.09
  YS02001915YS02001910        1.08      1.08      1.24      0.01         0.01
  YS02001918YS02001915        0.92      0.92      1.08      0.01         0.01
  YS02001923YS02001920        0.76      0.76      0.95      0.01         0.01
  YS02001920YS02001918        0.92      0.92      0.95      0.01         0.01
  YS02001629YS02163301        5.67      5.67      5.68      0.01         0.01
  YS02001619YS02001622        5.37      5.37      5.41      0.01         0.01
  YS02001622YS02001625        5.41      5.41      5.64      0.01         0.01
  YS02001625YS02001629        5.38      5.38      5.64      0.01         0.01
  YS02163301YS02001633        5.68      5.68      5.72      0.01         0.01
  YS02163601YS02164001        5.72      5.72      5.75      0.01         0.01
  YS02164001YS02001641        5.72      5.72      5.72      0.01         0.03
  YS02001641YS02001644        5.72      5.72      5.73      1.72         1.97
  YS02001647YS02001649        5.62      5.62      5.76      0.01         0.01
  YS02006553YS02006556        1.47      1.47      1.97      0.01         0.01
  YS02006556YS02006558        1.67      1.67      2.05      0.01         0.01
  YSB6556YSB1171              0.01      0.01      0.07      0.01         0.01
  YS02001907YS02006553        2.53      2.53      2.77      0.01         0.01
  YS02006558YS02006561        1.09      1.43      1.09      2.35         1.09
  YS02001633YS02163601        5.71      5.71      5.75      0.01         0.01
  YS02001644YS02001647        5.62      5.62      5.73      0.01         0.01
  YS02001745YS02001748        0.01      0.01      5.22      0.01         0.01
  YS02001748YS02001751        5.27      5.27      5.38      0.01         0.01
  YS02001751YS02001754        5.38      5.38      5.57      0.01         0.01
  YS02001754YS02001757        5.61      5.61      5.86      0.01         0.01
  YS02001882YS02001884        1.09      1.09      1.11      0.01         0.01
  YS02001884YS02001887        1.16      1.16      1.18      0.01         0.01
  YS02001890YS02001895        1.07      1.07      1.26      0.01         0.01
  YS02001895YS02001898        1.07      1.07      1.07      0.01         0.01
  YS02001898YS02001901        1.08      1.08      1.15      0.01         0.01
  YS02001901YS02001904        1.13      1.13      1.15      0.01         0.01
  YS02001904YS02001907        1.13      1.13      1.99      0.01         0.01
  YS02001887YS02001890        1.20      1.20      1.22      0.16         0.01
  YS02001652YS02001649        5.63      5.63      5.76      0.01         0.01
  YS02001655YS02001652        5.39      5.39      5.61      0.01         0.01
  YS02001658YS02001655        5.25      5.25      5.39      0.01         0.01
  YS02001661YS02001658        0.14      0.14      5.25      0.01         0.01
  YS02001664YS02001661        0.01      0.01      1.17      0.01         0.01
  HS02004881HS02006253        0.01      0.01      1.48      0.01         0.01
  YS02001793JiankangQianchi        1.92      1.92      3.99      0.01         0.01
  YS02001757CaochengTiaoxuchi        5.11      5.11      5.86      0.01         0.01
  
  
  ***************
  Pumping Summary
  ***************
  
  ---------------------------------------------------------------------------------------------------------
                                                  Min       Avg       Max     Total     Power    % Time Off
                        Percent   Number of      Flow      Flow      Flow    Volume     Usage    Pump Curve
  Pump                 Utilized   Start-Ups       LPS       LPS       LPS  10^6 ltr     Kw-hr    Low   High
  ---------------------------------------------------------------------------------------------------------
  CC-Pump-1               63.83           1      0.00    177.99    200.00     3.180      3.20    0.0    0.0
  CC-Pump-2               36.17           6      0.00    104.10    200.00     1.320      1.78    0.0    0.0
  JK-Pump-1               63.83           4      0.00    224.54    300.00     4.003     61.57    0.0    0.0
  JK-Pump-2               53.19           5      0.00    411.47    683.00     6.001     84.06    0.0   96.1
  XR-Pump-1               97.87           2      0.00     94.53     95.00     2.565     25.13    0.0    0.0
  XR-Pump-2               97.87           2      0.00     93.47     95.00     2.508     23.83    0.0    0.0
  XR-Pump-3               95.74           3      0.00     92.22     95.00     2.394     21.49    0.0    0.0
  XR-Pump-4               95.74           3      0.00     92.22     95.00     2.394     21.49    0.0    0.0
  
  
  ***************************
  Link Pollutant Load Summary
  ***************************
  
  ------------------------------------------------------------------------------------------
                                 COD            SS            TN            TP         NH4-N
  Link                            kg            kg            kg            kg            kg
  ------------------------------------------------------------------------------------------
  WS02003066WSF200           921.408      1717.407        23.726         2.051        12.436
  WS02006287WS02006284       319.516       608.202        10.315         1.015         5.679
  WS02006284WS02006280       320.007       609.011        10.362         1.021         5.708
  WS02006280WS02006229       319.950       608.899        10.359         1.021         5.707
  WS02006229WS02006228       921.760      1717.327        23.332         1.990        12.170
  WS02006256WS02006235       222.626       409.536         5.012         0.396         2.549
  WS02006253WS02006251        61.616       121.035         1.378         0.105         0.687
  WS02006252WS02006251       378.565       691.475         7.850         0.560         3.848
  WS02006251WS02006249       432.581       798.753         9.083         0.656         4.467
  WS02006249WS02006248       387.135       712.934         8.147         0.588         4.008
  WS02006248WS02006247       386.749       712.242         8.141         0.588         4.006
  WS02006247WS02006245       386.276       711.390         8.130         0.587         4.000
  WS02006245WS02006243       385.669       710.379         8.112         0.586         3.990
  WS02006243WS02006242       386.036       711.140         8.121         0.586         3.995
  WS02006242WS02006240       385.644       710.529         8.111         0.586         3.990
  WS02006240WS02006239       385.816       710.892         8.117         0.586         3.994
  WS02006239WS02006238       386.688       712.330         8.158         0.591         4.018
  WS02006238WS02006235       386.758       712.276         8.172         0.593         4.027
  WS02006235WS02006234       605.354      1114.592        13.065         0.978         6.512
  WS02006234WS02006232       604.829      1113.652        13.059         0.978         6.510
  WS02006232WS02006231       604.040      1112.256        13.041         0.976         6.501
  WS02006231WS02006230       603.417      1111.123        13.030         0.975         6.496
  WS02006230WS02006229       602.654      1109.869        13.004         0.973         6.481
  WS02006228WS02006109       920.702      1715.483        23.299         1.987        12.152
  WS02006116WS02004401       934.151      1740.045        24.060         2.079        12.610
  WS02006115WS02006116       935.432      1742.267        24.108         2.083        12.637
  WS02006113WS02006111       926.345      1724.136        24.006         2.078        12.601
  WS02006112WS02006115       936.497      1744.082        24.155         2.089        12.664
  WS02006111WS02006112       925.875      1723.324        23.989         2.077        12.591
  WS02006110WS02006113       926.833      1724.966        24.027         2.081        12.613
  WS02006109WS02006110       927.969      1726.926        24.077         2.086        12.642
  WS02004411WS02004412       924.840      1723.445        23.845         2.062        12.501
  WS02004401WS02004402       932.879      1737.842        24.009         2.073        12.581
  WS02004413WS02003067       922.114      1718.713        23.741         2.052        12.443
  WS02004412WS02004413       923.581      1721.223        23.810         2.059        12.483
  WS02004410WS02004411       925.812      1725.178        23.870         2.065        12.515
  WS02004409WS02004410       926.743      1726.825        23.898         2.067        12.530
  WS02004407WS02004409       927.504      1728.188        23.915         2.068        12.538
  WS02004406WS02004407       927.759      1728.675        23.916         2.068        12.538
  WS02004405WS02004406       929.570      1731.814        23.995         2.076        12.584
  WS02004404WS02004405       930.872      1734.178        24.005         2.076        12.586
  WS02004403WS02004404       930.511      1733.714        23.924         2.065        12.533
  WS02004402WS02004403       931.630      1735.664        23.966         2.069        12.557
  WS02004139WS02001211      1376.470      2285.629       111.710        13.636        68.858
  WS02004138WS02004139      1382.665      2295.975       112.189        13.694        69.152
  WS02003067WS02003066       921.571      1717.704        23.732         2.051        12.439
  WS02001213WS02003059      1410.191      2338.660       115.194        14.075        71.047
  WS02001212WS02001213      1419.134      2353.470       115.920        14.164        71.495
  WS02001211WS02001212      1420.980      2356.486       116.079        14.183        71.593
  WS02003072WS02003073      2432.230      4215.939       148.930        17.383        89.753
  WS02003069WS02003072      2436.840      4223.486       149.305        17.428        89.985
  WS02003060WS02003069      2439.621      4228.254       149.474        17.448        90.086
  WS02003059WS02003060      1407.662      2334.350       115.022        14.055        70.942
  HS02004901HS02004770        13.093        25.473         0.248         0.019         0.116
  HS02004876HS02004881        45.519        90.357         0.999         0.073         0.491
  HS02004870HS02004876        34.385        68.111         0.798         0.060         0.395
  HS02004842HS02004848         6.456        12.343         0.134         0.009         0.062
  HS02004837HS02004842        11.055        19.634         0.603         0.068         0.356
  HS02004830HS02004837        70.297       122.727         4.643         0.552         2.827
  HS02004824HS02004830        71.070       123.984         4.715         0.561         2.871
  HS02004817HS02004824        97.165       176.412         5.254         0.596         3.135
  HS02004770HS02004777        49.664        97.717         1.021         0.069         0.472
  HS02004799HS02004480       162.338       310.871         4.263         0.379         2.210
  HS02004792HS02004799       147.284       280.147         4.029         0.367         2.105
  HS02004788HS02004792        82.822       157.700         2.666         0.255         1.440
  HS02004785HS02004788        51.125       100.059         1.172         0.089         0.567
  HS02004777HS02004785        50.450        98.951         1.112         0.081         0.530
  HS02004480HS02004478       204.838       395.228         4.972         0.429         2.543
  HS02004479HS02004480        46.125        90.111         1.036         0.091         0.538
  HS02004862HS02004870        25.801        50.344         0.628         0.050         0.314
  HS02004848HS02004852        10.252        19.886         0.210         0.014         0.097
  HS02004856HS02004862        17.526        34.752         0.350         0.023         0.164
  HS02004852HS02004856        10.256        19.891         0.210         0.014         0.097
  HS02004802HS02004478       115.347       214.063         5.398         0.592         3.169
  HS02004478WS02006287       319.725       608.562        10.332         1.017         5.690
  HS02004817HS02004807        95.862       174.322         5.130         0.581         3.057
  HS02004807HS02004802       115.603       214.464         5.430         0.596         3.190
  YS02001759YS02001757       352.293       647.389         7.019         0.488         3.428
  YS02001762YS02001759       163.518       300.674         3.462         0.245         1.713
  YS02001765YS02001762       164.316       302.818         3.495         0.248         1.732
  YS02001770YS02001767       165.574       307.030         3.347         0.224         1.629
  YS02001774YS02001770       263.327       512.814         5.066         0.337         2.448
  YS02001779YS02001774       262.378       510.915         5.152         0.350         2.509
  YS02001649YS02001757       346.548       623.511         6.930         0.481         3.323
  YS02001767YS02001765       165.536       305.693         3.532         0.251         1.752
  YS02006561YS02001783      1017.396      1885.395        21.341         1.593        10.621
  YS02001783YS02001784      1017.264      1885.184        21.337         1.593        10.619
  YS02001784YS02001785      1024.578      1896.902        22.050         1.682        11.065
  YS02001788YS02001790      1025.137      1897.804        22.121         1.692        11.110
  YS02001790YS02001791      1026.163      1899.480        22.221         1.704        11.173
  YS02001791YS02001793      1026.021      1899.237        22.215         1.703        11.169
  YS02001910YS02001907       391.125       721.460         9.382         0.717         4.806
  YS02001786YS02001788      1024.752      1897.189        22.077         1.686        11.082
  YS02001915YS02001910       391.196       721.584         9.334         0.710         4.774
  YS02001918YS02001915       190.502       336.684         5.215         0.472         2.804
  YS02001923YS02001920       167.293       298.113         3.217         0.227         1.564
  YS02001926YS02001923       165.136       294.380         3.117         0.216         1.506
  YS02001929YS02001926       164.191       292.746         3.065         0.210         1.474
  YS02001920YS02001918       187.869       331.323         5.136         0.466         2.762
  YS02001629YS02163301        96.099       169.922         2.028         0.131         0.946
  YS02001619YS02001622       175.882       321.150         3.602         0.236         1.684
  YS02001622YS02001625       174.695       319.262         3.573         0.234         1.671
  YS02001625YS02001629        97.178       171.686         2.053         0.132         0.957
  YS02163301YS02001633        96.458       170.789         2.031         0.132         0.948
  YS02163601YS02164001       405.682       733.074         7.898         0.562         3.783
  YS02164001YS02001641       405.131       732.137         7.877         0.560         3.772
  YS02001641YS02001644       405.193       732.162         7.873         0.560         3.769
  YS02001647YS02001649       435.363       798.130         8.562         0.597         4.082
  YS02006553YS02006556       683.559      1255.978        14.716         1.127         7.409
  YS02006556YS02006558       683.442      1255.747        14.686         1.123         7.389
  YSB6556YSB1171              26.521        51.968         0.537         0.045         0.272
  YS02001907YS02006553       683.728      1256.318        14.726         1.129         7.415
  YS02006558YS02006561      1017.404      1885.401        21.340         1.593        10.621
  YS02001633YS02163601       406.415       734.217         7.879         0.558         3.767
  YS02001644YS02001647       441.118       808.494         8.661         0.604         4.129
  YS02001745YS02001748       249.098       465.979         5.408         0.369         2.677
  YS02001748YS02001751       247.398       462.702         5.465         0.380         2.721
  YS02001751YS02001754       246.414       461.081         5.447         0.380         2.713
  YS02001754YS02001757       247.184       462.233         5.613         0.402         2.821
  YS02001882YS02001884         3.257         5.645         0.066         0.005         0.033
  YS02001884YS02001887         6.785        12.025         0.134         0.010         0.067
  YS02001890YS02001895       450.903       846.343         8.300         0.624         4.049
  YS02001895YS02001898       450.750       846.150         8.294         0.624         4.045
  YS02001898YS02001901       450.569       845.842         8.290         0.623         4.043
  YS02001901YS02001904       450.404       845.608         8.296         0.624         4.048
  YS02001904YS02001907       450.587       845.878         8.349         0.631         4.082
  YS02001887YS02001890       468.195       880.629         8.644         0.653         4.222
  YS02001652YS02001649       197.447       367.455         3.971         0.286         1.863
  YS02001655YS02001652       198.013       368.372         3.986         0.287         1.870
  YS02001658YS02001655       197.534       367.609         3.900         0.276         1.814
  YS02001661YS02001658       201.012       373.810         3.971         0.281         1.847
  YS02001664YS02001661       217.117       400.406         4.333         0.305         2.013
  YSB1154YSB6556              26.085        51.271         0.486         0.038         0.239
  YSB1174YSB1171              18.021        35.563         0.361         0.029         0.180
  YSB1171HS02004479           46.090        90.056         1.039         0.092         0.540
  HS02004881HS02006253        51.721       103.140         1.104         0.080         0.540
  YS02001793JiankangQianchi      1026.587      1900.110        22.251         1.707        11.191
  YS02001757CaochengTiaoxuchi       641.678      1156.849        13.491         0.957         6.613
  WSF200WS02003060           921.213      1717.001        23.735         2.052        12.442
  1                         2436.530      4221.962       149.556        17.464        90.153
  CC-Pump-1                  266.663       486.736         5.535         0.395         2.714
  CC-Pump-2                  111.930       204.787         2.315         0.165         1.134
  JK-Pump-1                  296.399       550.394         6.498         0.506         3.285
  JK-Pump-2                  508.824       957.445        10.412         0.771         5.156
  XR-Pump-1                  364.341       603.936        29.807         3.643        18.385
  XR-Pump-2                  352.718       585.342        28.697         3.504        17.692
  XR-Pump-3                  334.694       556.471        26.999         3.293        16.634
  XR-Pump-4                  334.694       556.471        26.999         3.293        16.634
  

  Analysis begun on:  Fri Jul 16 11:57:31 2021
  Analysis ended on:  Fri Jul 16 11:57:34 2021
  Total elapsed time: 00:00:03