
  EPA STORM WATER MANAGEMENT MODEL - VERSION 5.1 (Build 5.3.0.dev0)
  --------------------------------------------------------------

  WARNING 04: minimum elevation drop used for Conduit WS02004404WS02004405
  WARNING 03: negative offset ignored for Link YS02001904YS02001907
  
  *********************************************************
  NOTE: The summary statistics displayed in this report are
  based on results found at every computational time step,  
  not just on results from each reporting time step.
  *********************************************************
  
  ****************
  Analysis Options
  ****************
  Flow Units ............... LPS
  Process Models:
    Rainfall/Runoff ........ YES
    RDII ................... NO
    Snowmelt ............... NO
    Groundwater ............ NO
    Flow Routing ........... YES
    Ponding Allowed ........ NO
    Water Quality .......... YES
  Infiltration Method ...... HORTON
  Flow Routing Method ...... DYNWAVE
  Surcharge Method ......... EXTRAN
  Starting Date ............ 08/28/2015 08:00:00
  Ending Date .............. 08/28/2015 15:50:00
  Antecedent Dry Days ...... 8.0
  Report Time Step ......... 00:01:00
  Wet Time Step ............ 00:01:00
  Dry Time Step ............ 00:01:00
  Routing Time Step ........ 5.00 sec
  Variable Time Step ....... YES
  Maximum Trials ........... 8
  Number of Threads ........ 4
  Head Tolerance ........... 0.001500 m
  
  
  **************************        Volume         Depth
  Runoff Quantity Continuity     hectare-m            mm
  **************************     ---------       -------
  Total Precipitation ......         6.144        13.452
  Evaporation Loss .........         0.000         0.000
  Infiltration Loss ........         1.064         2.328
  Surface Runoff ...........         4.147         9.079
  Final Storage ............         0.935         2.047
  Continuity Error (%) .....        -0.020
  
  
  **************************           COD            SS            TN            TP         NH4-N
  Runoff Quality Continuity             kg            kg            kg            kg            kg
  **************************    ----------    ----------    ----------    ----------    ----------
  Initial Buildup ..........     41378.656     70582.865      1804.177       168.684      1032.807
  Surface Buildup ..........        21.799        40.924         2.400         0.218         1.395
  Wet Deposition ...........         0.000         0.000         0.000         0.000         0.000
  Sweeping Removal .........         0.000         0.000         0.000         0.000         0.000
  Infiltration Loss ........        97.311       184.943         1.849         0.130         0.881
  BMP Removal ..............         0.000         0.000         0.000         0.000         0.000
  Surface Runoff ...........      3769.819      7064.251        72.781         4.964        34.599
  Remaining Buildup ........     37531.916     63371.884      1731.919       163.806       998.709
  Continuity Error (%) .....         0.003         0.004         0.002         0.001         0.001
  
  
  **************************        Volume        Volume
  Flow Routing Continuity        hectare-m      10^6 ltr
  **************************     ---------     ---------
  Dry Weather Inflow .......         0.616         6.165
  Wet Weather Inflow .......         4.145        41.450
  Groundwater Inflow .......         0.000         0.000
  RDII Inflow ..............         0.000         0.000
  External Inflow ..........         0.102         1.024
  External Outflow .........         2.070        20.702
  Flooding Loss ............         2.374        23.739
  Evaporation Loss .........         0.000         0.000
  Exfiltration Loss ........         0.000         0.000
  Initial Stored Volume ....         0.076         0.761
  Final Stored Volume ......         0.630         6.304
  Continuity Error (%) .....        -2.723
  
  
  **************************           COD            SS            TN            TP         NH4-N
  Quality Routing Continuity            kg            kg            kg            kg            kg
  **************************    ----------    ----------    ----------    ----------    ----------
  Dry Weather Inflow .......      1541.201      2465.922       147.955        18.494        92.472
  Wet Weather Inflow .......      3768.917      7062.710        72.761         4.963        34.590
  Groundwater Inflow .......         0.000         0.000         0.000         0.000         0.000
  RDII Inflow ..............         0.000         0.000         0.000         0.000         0.000
  External Inflow ..........       183.418       293.469        17.608         2.201        11.005
  External Outflow .........      2443.632      4233.499       150.195        17.541        90.548
  Flooding Loss ............      2371.096      4427.104        60.658         5.288        31.861
  Exfiltration Loss ........         0.000         0.000         0.000         0.000         0.000
  Mass Reacted .............         0.000         0.000         0.000         0.000         0.000
  Initial Stored Mass ......         0.000         0.000         0.000         0.000         0.000
  Final Stored Mass ........       521.978       891.791        23.750         2.543        13.782
  Continuity Error (%) .....         2.855         2.746         1.562         1.116         1.359
  
  
  *************************
  Highest Continuity Errors
  *************************
  Node HS02004842 (13.41%)
  Node JK-storage (-12.69%)
  Node YS02001884 (10.37%)
  Node HS02004817 (2.53%)
  Node YSB1171 (2.46%)
  
  
  ***************************
  Time-Step Critical Elements
  ***************************
  Link WS02006252WS02006251 (66.77%)
  Link WS02006280WS02006229 (9.69%)
  Link YS02001793JiankangQianchi (8.12%)
  Link WS02006238WS02006235 (3.44%)
  Link YS02006556YS02006558 (2.50%)
  
  
  ********************************
  Highest Flow Instability Indexes
  ********************************
  Link WS02006113WS02006111 (40)
  Link YS02001619YS02001622 (32)
  Link YS02163601YS02164001 (32)
  Link YS02001629YS02163301 (31)
  Link YS02163301YS02001633 (31)
  
  
  *************************
  Routing Time Step Summary
  *************************
  Minimum Time Step           :     0.37 sec
  Average Time Step           :     1.15 sec
  Maximum Time Step           :     5.00 sec
  Percent in Steady State     :    -0.00
  Average Iterations per Step :     3.93
  Percent Not Converging      :    15.25
  
  
  ***************************
  Subcatchment Runoff Summary
  ***************************
  
  ------------------------------------------------------------------------------------------------------------------------------
                            Total      Total      Total      Total     Imperv       Perv      Total       Total     Peak  Runoff
                           Precip      Runon       Evap      Infil     Runoff     Runoff     Runoff      Runoff   Runoff   Coeff
  Subcatchment                 mm         mm         mm         mm         mm         mm         mm    10^6 ltr      LPS
  ------------------------------------------------------------------------------------------------------------------------------
  sub0                      13.45       0.00       0.00       0.63      12.47       0.31      12.77        0.01     3.75   0.950
  sub1                      13.45       0.00       0.00       1.12      11.88       0.36      12.24        0.08    25.66   0.910
  sub2                      13.45       0.00       0.00       4.44       8.39       0.53       8.92        0.08    25.29   0.663
  sub3                      13.45       0.00       0.00       4.56       8.35       0.42       8.77        0.20    55.75   0.652
  sub4                      13.45       0.00       0.00       1.22      11.71       0.26      11.97        0.25    65.52   0.890
  sub5                      13.45       0.00       0.00       0.68      12.41       0.26      12.67        0.14    44.76   0.942
  sub7                      13.45       0.00       0.00       0.86      12.18       0.35      12.53        0.04    14.26   0.931
  sub8                      13.45       0.00       0.00       0.87      12.17       0.34      12.50        0.08    26.26   0.930
  sub9                      13.45       0.00       0.00       0.88      12.17       0.33      12.50        0.06    19.64   0.929
  sub10                     13.45       0.00       0.00       0.78      12.29       0.29      12.58        0.14    44.00   0.935
  sub11                     13.45       0.00       0.00       0.77      12.30       0.31      12.61        0.15    48.45   0.938
  sub12                     13.45       0.00       0.00       1.25      11.66       0.50      12.16        0.11    38.10   0.904
  sub14                     13.45       0.00       0.00       0.88      12.16       0.33      12.49        0.12    38.67   0.929
  sub15                     13.45       0.00       0.00       3.37       9.35       0.66      10.01        0.17    57.01   0.744
  sub16                     13.45       0.00       0.00       3.56       8.97       0.88       9.85        0.10    37.63   0.732
  sub17                     13.45       0.00       0.00       3.47       9.10       0.84       9.94        0.09    30.67   0.739
  sub22                     13.45       0.00       0.00       4.98       7.63       0.81       8.43        0.53   184.54   0.627
  sub23                     13.45       0.00       0.00       4.17       8.43       0.81       9.24        0.44   154.22   0.687
  sub60                     13.45       0.00       0.00       1.53       9.85       0.09       9.93        3.01   438.14   0.738
  sub61                     13.45       0.00       0.00       2.16       9.95       0.12      10.07        3.11   536.45   0.749
  sub62                     13.45       0.00       0.00       0.98      10.84       0.10      10.94        3.36   552.35   0.813
  sub63                     13.45       0.00       0.00       3.77       8.69       0.14       8.83        2.67   492.63   0.656
  sub64                     13.45       0.00       0.00       1.93       9.45       0.09       9.54        2.90   416.72   0.709
  sub65                     13.45       0.00       0.00       1.67       9.61       0.08       9.70        2.98   423.09   0.721
  sub66                     13.45       0.00       0.00       3.81       8.10       0.09       8.18        2.51   380.66   0.608
  sub67                     13.45       0.00       0.00       0.95      11.38       0.13      11.51        3.55   679.52   0.856
  sub68                     13.45       0.00       0.00       1.75      10.45       0.13      10.59        3.26   586.26   0.787
  sub69                     13.45       0.00       0.00       1.83      10.79       0.19      10.98        2.57   544.72   0.816
  sub70                     13.45      11.20       0.00       7.51      14.65       0.88      15.52        3.55   494.81   0.630
  sub71                     13.45       0.00       0.00       0.99      10.58       0.09      10.67        2.52   389.24   0.793
  sub72                     13.45       0.00       0.00       0.89       8.56       0.05       8.61        1.75   189.18   0.640
  1                         13.45      15.11       0.00       1.37      16.56       4.63      21.19        4.98   484.42   0.742
  2                         13.45       0.00       0.00       3.02       3.21       1.96       5.17        2.07   340.45   0.384
  
  
  ****************************
  Subcatchment Washoff Summary
  ****************************
  
  ------------------------------------------------------------------------------------------
                                 COD            SS            TN            TP         NH4-N
  Subcatchment                    kg            kg            kg            kg            kg
  ------------------------------------------------------------------------------------------
  sub0                         2.670         5.197         0.046         0.004         0.022
  sub1                        11.241        22.423         0.210         0.015         0.101
  sub2                         6.894        13.384         0.145         0.010         0.067
  sub3                        16.924        32.573         0.350         0.024         0.161
  sub4                        25.772        51.904         0.510         0.031         0.245
  sub5                        25.778        50.682         0.460         0.035         0.223
  sub7                         5.751        11.638         0.108         0.007         0.052
  sub8                         8.581        17.755         0.171         0.010         0.082
  sub9                         7.353        15.005         0.142         0.009         0.068
  sub10                       21.202        42.223         0.389         0.028         0.188
  sub11                       20.657        41.614         0.386         0.026         0.187
  sub12                       17.724        35.094         0.321         0.024         0.155
  sub14                       15.732        31.800         0.298         0.020         0.144
  sub15                       20.231        39.321         0.389         0.028         0.182
  sub16                       13.129        25.518         0.249         0.019         0.117
  sub17                       12.049        23.208         0.222         0.017         0.105
  sub22                       62.582       119.432         1.186         0.090         0.554
  sub23                       36.683        72.439         0.776         0.051         0.357
  sub60                      243.520       456.962         4.842         0.298         2.321
  sub61                      302.151       564.434         5.627         0.386         2.710
  sub62                      313.722       596.076         6.119         0.388         2.938
  sub63                      223.275       410.850         4.468         0.314         2.075
  sub64                      305.877       553.773         5.626         0.410         2.687
  sub65                      313.037       569.066         5.795         0.415         2.772
  sub66                      176.068       321.340         3.608         0.236         1.687
  sub67                      466.222       877.505         8.365         0.616         4.045
  sub68                      332.037       626.413         6.347         0.429         3.034
  sub69                      298.258       568.561         5.590         0.393         2.674
  sub70                      502.897       962.303        10.037         0.699         4.710
  sub71                      206.745       396.330         4.242         0.246         2.030
  sub72                      164.385       293.107         3.069         0.210         1.476
  1                          349.075       671.606         7.102         0.495         3.297
  2                           42.749        75.577         1.214         0.073         0.518
  ------------------------------------------------------------------------------------------
  System                    4570.974      8595.115        88.408         6.057        41.983
  
  
  ******************
  Node Depth Summary
  ******************
  
  ---------------------------------------------------------------------------------
                                 Average  Maximum  Maximum  Time of Max    Reported
                                   Depth    Depth      HGL   Occurrence   Max Depth
  Node                 Type       Meters   Meters   Meters  days hr:min      Meters
  ---------------------------------------------------------------------------------
  WS02001211           JUNCTION     0.78     0.85     5.69     0  03:07        0.85
  WS02001212           JUNCTION     0.49     0.58     5.64     0  03:06        0.58
  WS02001213           JUNCTION     0.73     0.85     5.62     0  03:06        0.85
  WS02003069           JUNCTION     0.54     0.72     5.30     0  03:05        0.72
  WS02003072           JUNCTION     0.60     0.76     5.13     0  03:06        0.76
  WS02003073           JUNCTION     0.36     0.48     4.54     0  03:06        0.48
  WS02003060           JUNCTION     0.47     0.63     5.57     0  03:05        0.63
  WS02003066           JUNCTION     0.26     0.39     5.94     0  03:04        0.39
  WS02003059           JUNCTION     0.78     0.91     5.60     0  03:05        0.91
  WS02003067           JUNCTION     0.63     0.82     6.14     0  03:03        0.82
  WS02004401           JUNCTION     0.76     1.24     7.24     0  03:02        1.23
  WS02004402           JUNCTION     0.78     1.22     7.18     0  03:02        1.22
  WS02004403           JUNCTION     0.80     1.20     7.13     0  03:02        1.19
  WS02004404           JUNCTION     0.87     1.24     7.09     0  03:02        1.24
  WS02004406           JUNCTION     0.87     1.16     6.99     0  03:02        1.16
  WS02004409           JUNCTION     0.57     0.96     6.73     0  03:03        0.96
  WS02004410           JUNCTION     0.59     0.95     6.67     0  03:03        0.95
  WS02004411           JUNCTION     0.60     0.93     6.61     0  03:03        0.93
  WS02004412           JUNCTION     0.61     0.90     6.54     0  03:03        0.90
  WS02004413           JUNCTION     0.77     1.02     6.49     0  03:03        1.02
  WS02004405           JUNCTION     0.87     1.22     7.07     0  03:03        1.21
  WS02006109           JUNCTION     0.85     1.66     8.28     0  03:02        1.64
  WS02006110           JUNCTION     0.82     1.45     8.04     0  03:02        1.44
  WS02006111           JUNCTION     0.26     0.89     7.59     0  03:02        0.88
  WS02006112           JUNCTION     0.94     1.56     7.44     0  03:02        1.55
  WS02006113           JUNCTION     0.39     0.92     7.82     0  03:02        0.92
  WS02006115           JUNCTION     0.65     1.22     7.36     0  03:02        1.21
  WS02006116           JUNCTION     0.73     1.26     7.30     0  03:02        1.26
  WS02006230           JUNCTION     0.88     1.88     8.62     0  03:02        1.87
  WS02006231           JUNCTION     0.61     1.52     8.64     0  03:02        1.51
  WS02006232           JUNCTION     0.76     1.63     8.67     0  03:02        1.61
  WS02006234           JUNCTION     0.70     1.53     8.68     0  03:02        1.52
  WS02006235           JUNCTION     0.75     1.54     8.70     0  03:02        1.52
  WS02006238           JUNCTION     0.77     1.56     8.70     0  03:02        1.54
  WS02006240           JUNCTION     0.68     1.40     8.69     0  03:02        1.39
  WS02006242           JUNCTION     0.74     1.43     8.69     0  03:02        1.42
  WS02006243           JUNCTION     0.62     1.28     8.70     0  03:01        1.27
  WS02006245           JUNCTION     0.60     1.21     8.70     0  03:02        1.20
  WS02006247           JUNCTION     0.61     1.20     8.70     0  03:02        1.19
  WS02006248           JUNCTION     0.55     1.10     8.69     0  02:58        1.10
  WS02006249           JUNCTION     0.57     1.09     8.69     0  02:56        1.09
  WS02006239           JUNCTION     0.74     1.49     8.70     0  03:02        1.48
  WS02006251           JUNCTION     0.55     1.25     8.92     0  02:56        1.16
  WS02006252           JUNCTION     0.35     0.78     9.02     0  06:50        0.71
  WS02006253           JUNCTION     0.58     1.49     9.13     0  04:07        1.18
  WS02006256           JUNCTION     1.72     2.35     9.28     0  00:12        2.35
  WS02004138           JUNCTION     0.19     0.20     7.45     0  00:00        0.19
  WS02004139           JUNCTION     0.72     0.79     5.70     0  03:07        0.79
  WS02004407           JUNCTION     0.25     0.40     6.71     0  03:02        0.40
  WS02006228           JUNCTION     0.87     1.83     8.48     0  03:02        1.82
  WS02006229           JUNCTION     0.86     1.90     8.59     0  03:02        1.89
  WS02006280           JUNCTION     0.07     0.29     8.57     0  03:04        0.29
  WS02006284           JUNCTION     0.37     0.65     9.04     0  03:02        0.64
  WS02006287           JUNCTION     0.10     0.39     9.34     0  03:02        0.39
  WSF200               JUNCTION     0.25     0.44     5.67     0  03:04        0.44
  HS02004901           JUNCTION     0.13     0.38    10.20     0  03:01        0.37
  HS02004881           JUNCTION     0.01     0.05     9.08     0  03:01        0.05
  HS02004876           JUNCTION     0.04     0.16     9.19     0  03:01        0.16
  HS02004870           JUNCTION     0.02     0.09     9.38     0  03:01        0.09
  HS02004862           JUNCTION     0.02     0.11     9.49     0  03:01        0.11
  HS02004856           JUNCTION     0.08     0.15     9.58     0  03:01        0.15
  HS02004852           JUNCTION     0.01     0.07     9.59     0  03:02        0.07
  HS02004848           JUNCTION     0.01     0.07     9.67     0  03:01        0.07
  HS02004842           JUNCTION     0.34     0.40     9.67     0  03:01        0.40
  HS02004837           JUNCTION     0.03     0.09     9.67     0  03:01        0.09
  HS02004830           JUNCTION     0.04     0.10     9.57     0  03:02        0.10
  HS02004824           JUNCTION     0.02     0.13     9.53     0  03:02        0.13
  HS02004817           JUNCTION     0.44     0.69     9.54     0  03:02        0.69
  HS02004807           JUNCTION     0.13     0.36     9.53     0  03:02        0.36
  HS02004802           JUNCTION     0.17     0.39     9.52     0  03:02        0.39
  HS02004799           JUNCTION     0.12     0.46     9.68     0  03:01        0.46
  HS02004792           JUNCTION     0.03     0.22     9.74     0  03:01        0.21
  HS02004788           JUNCTION     0.03     0.16    10.05     0  03:02        0.16
  HS02004785           JUNCTION     0.05     0.25    10.15     0  03:02        0.25
  HS02004777           JUNCTION     0.15     0.39    10.19     0  03:01        0.39
  HS02004770           JUNCTION     0.12     0.37    10.20     0  03:01        0.36
  HS02004480           JUNCTION     0.08     0.38     9.62     0  03:01        0.38
  HS02004479           JUNCTION     0.12     0.42     9.62     0  03:01        0.42
  HS02004478           JUNCTION     0.06     0.28     9.50     0  03:01        0.28
  YS02001745           JUNCTION     0.73     0.95     8.47     0  03:00        0.95
  YS02001748           JUNCTION     1.13     1.47     8.55     0  02:34        1.38
  YS02001751           JUNCTION     1.31     1.58     8.46     0  03:01        1.58
  YS02001754           JUNCTION     1.57     1.85     8.46     0  02:56        1.83
  YS02001762           JUNCTION     1.77     2.04     8.44     0  03:00        2.04
  YS02001765           JUNCTION     1.72     1.99     8.44     0  03:00        1.99
  YS02001767           JUNCTION     1.68     1.95     8.44     0  03:00        1.93
  YS02001770           JUNCTION     1.68     1.93     8.43     0  03:00        1.93
  YS02001774           JUNCTION     1.75     1.99     8.41     0  03:01        1.98
  YS02001779           JUNCTION     1.49     1.68     8.37     0  02:33        1.68
  YS02001882           JUNCTION     0.58     1.63     8.35     0  03:00        1.63
  YS02001884           JUNCTION     0.68     1.73     8.35     0  02:58        1.73
  YS02001759           JUNCTION     1.80     2.08     8.44     0  02:55        2.07
  YS02001887           JUNCTION     0.76     1.82     8.35     0  03:00        1.80
  YS02001890           JUNCTION     0.79     1.81     8.32     0  02:46        1.81
  YS02001898           JUNCTION     0.55     1.56     8.30     0  02:51        1.56
  YS02001901           JUNCTION     0.67     1.68     8.29     0  02:52        1.67
  YS02001904           JUNCTION     0.65     1.64     8.27     0  02:46        1.63
  YS02001907           JUNCTION     0.98     1.96     8.25     0  02:46        1.96
  YS02001910           JUNCTION     0.77     1.78     8.29     0  02:46        1.78
  YS02001915           JUNCTION     0.57     1.61     8.33     0  02:47        1.60
  YS02001918           JUNCTION     0.31     1.30     8.36     0  02:47        1.30
  YS02001619           JUNCTION     1.28     1.61     8.54     0  02:32        1.48
  YS02001629           JUNCTION     1.63     1.85     8.40     0  02:32        1.84
  YS02001641           JUNCTION     1.73     1.94     8.37     0  02:39        1.93
  YS02001644           JUNCTION     1.73     1.92     8.35     0  02:39        1.92
  YS02001652           JUNCTION     1.58     2.16     8.76     0  02:49        1.98
  YS02001655           JUNCTION     1.34     2.19     9.04     0  02:49        1.85
  YS02001920           JUNCTION     0.41     1.38     8.39     0  02:47        1.38
  YS02001923           JUNCTION     0.24     1.14     8.40     0  02:47        1.14
  YS02001926           JUNCTION     0.30     0.96     8.40     0  02:46        0.94
  YS02001929           JUNCTION     0.17     0.72     8.42     0  02:46        0.69
  YS02001658           JUNCTION     1.07     2.10     9.24     0  02:49        1.66
  YS02001661           JUNCTION     0.84     2.25     9.65     0  02:49        1.46
  YS02001664           JUNCTION     0.37     0.58     8.50     0  02:43        0.57
  YS02001622           JUNCTION     1.30     1.62     8.52     0  02:32        1.50
  YS02001633           JUNCTION     1.72     1.95     8.40     0  02:40        1.94
  YS02001649           JUNCTION     1.77     2.05     8.44     0  02:43        2.05
  YS02001757           JUNCTION     1.90     2.17     8.43     0  02:56        2.17
  YS02001895           JUNCTION     0.55     1.57     8.31     0  02:52        1.56
  YS02001625           JUNCTION     1.58     1.78     8.38     0  02:32        1.78
  YS02163301           JUNCTION     1.66     1.88     8.40     0  02:50        1.88
  YS02163601           JUNCTION     1.77     1.99     8.39     0  02:53        1.98
  YS02164001           JUNCTION     1.71     1.92     8.38     0  02:40        1.92
  YS02001647           JUNCTION     1.56     1.80     8.41     0  02:52        1.79
  YSB1154              JUNCTION     0.26     0.57     9.62     0  03:01        0.57
  YSB6556              JUNCTION     0.15     0.45     9.62     0  03:02        0.45
  YSB1174              JUNCTION     0.21     0.52     9.62     0  03:01        0.51
  YSB1171              JUNCTION     0.41     0.72     9.62     0  03:01        0.72
  YS02006553           JUNCTION     0.98     1.97     8.25     0  02:59        1.96
  YS02006561           JUNCTION     0.33     1.08     7.74     0  02:59        1.07
  YS02006556           JUNCTION     0.95     1.93     8.24     0  03:01        1.93
  YS02006558           JUNCTION     0.99     1.98     8.24     0  03:00        1.97
  YS02001783           JUNCTION     0.56     1.78     7.92     0  02:35        1.46
  YS02001784           JUNCTION     0.57     1.58     7.65     0  02:35        1.41
  YS02001786           JUNCTION     0.51     1.64     7.67     0  02:35        1.25
  YS02001788           JUNCTION     0.44     1.49     7.46     0  02:35        1.12
  YS02001790           JUNCTION     0.56     1.96     7.60     0  04:45        1.29
  YS02001791           JUNCTION     0.53     2.72     8.19     0  04:45        1.30
  YS02001793           JUNCTION     0.73     3.60     8.43     0  04:43        1.84
  WSC                  OUTFALL      0.36     0.48     1.15     0  03:07        0.48
  JK-storage           STORAGE      2.96     5.80     6.60     0  02:35        5.80
  CC-storage           STORAGE      1.16     1.42     8.42     0  03:23        1.42
  XR-storage           STORAGE      6.70     7.72     5.72     0  02:59        7.72
  
  
  *******************
  Node Inflow Summary
  *******************
  
  -------------------------------------------------------------------------------------------------
                                  Maximum  Maximum                  Lateral       Total        Flow
                                  Lateral    Total  Time of Max      Inflow      Inflow     Balance
                                   Inflow   Inflow   Occurrence      Volume      Volume       Error
  Node                 Type           LPS      LPS  days hr:min    10^6 ltr    10^6 ltr     Percent
  -------------------------------------------------------------------------------------------------
  WS02001211           JUNCTION      7.35   390.53     0  03:27       0.207        10.1       0.404
  WS02001212           JUNCTION      0.00   393.86     0  03:26           0          10       0.246
  WS02001213           JUNCTION      0.00   396.93     0  03:26           0          10       0.290
  WS02003069           JUNCTION      0.32  1329.63     0  03:05     0.00902        20.8       0.177
  WS02003072           JUNCTION      0.00  1329.41     0  03:06           0        20.7       0.211
  WS02003073           JUNCTION      1.82  1331.50     0  03:06      0.0514        20.8       0.247
  WS02003060           JUNCTION     16.53  1329.17     0  03:04       0.466        20.8       0.166
  WS02003066           JUNCTION      0.00   938.35     0  03:04           0        10.4       0.046
  WS02003059           JUNCTION      0.00   401.05     0  03:25           0        9.99       0.413
  WS02003067           JUNCTION      0.00   937.82     0  03:04           0        10.4       0.094
  WS02004401           JUNCTION      0.00   939.77     0  03:02           0        10.6       0.196
  WS02004402           JUNCTION      0.00   940.06     0  03:02           0        10.6       0.185
  WS02004403           JUNCTION      0.00   939.63     0  03:02           0        10.6       0.170
  WS02004404           JUNCTION      0.16   940.66     0  03:02     0.00457        10.6       0.127
  WS02004406           JUNCTION      0.00   940.02     0  03:02           0        10.6       0.313
  WS02004409           JUNCTION      0.00   939.41     0  03:02           0        10.5       0.164
  WS02004410           JUNCTION      0.00   938.29     0  03:03           0        10.5       0.185
  WS02004411           JUNCTION      0.00   937.58     0  03:03           0        10.5       0.191
  WS02004412           JUNCTION      0.00   937.33     0  03:03           0        10.5       0.205
  WS02004413           JUNCTION      0.00   937.73     0  03:04           0        10.4       0.300
  WS02004405           JUNCTION      0.04   941.20     0  03:02     0.00107        10.6       0.192
  WS02006109           JUNCTION      1.23   915.09     0  03:03      0.0347        10.7       0.158
  WS02006110           JUNCTION      0.00   915.22     0  03:03           0        10.7       0.181
  WS02006111           JUNCTION      0.00   915.42     0  03:03           0        10.6       0.028
  WS02006112           JUNCTION     30.67   939.11     0  03:02      0.0853        10.7       0.270
  WS02006113           JUNCTION      0.00   915.15     0  03:02           0        10.6       0.088
  WS02006115           JUNCTION      0.00   939.13     0  03:02           0        10.7       0.181
  WS02006116           JUNCTION      0.00   939.66     0  03:02           0        10.7       0.165
  WS02006230           JUNCTION     10.28   534.65     0  06:51        0.29        8.25       0.153
  WS02006231           JUNCTION      0.00   524.23     0  06:51           0        7.97       0.093
  WS02006232           JUNCTION      0.00   524.36     0  06:51           0        7.98       0.193
  WS02006234           JUNCTION      0.00   523.89     0  06:51           0        7.99       0.083
  WS02006235           JUNCTION      0.00   524.55     0  06:51           0        8.06       0.113
  WS02006238           JUNCTION      0.00   394.56     0  04:41           0        4.69       0.161
  WS02006240           JUNCTION      0.00   394.25     0  04:40           0        4.64       0.227
  WS02006242           JUNCTION      0.00   394.18     0  04:40           0        4.63       0.281
  WS02006243           JUNCTION      0.00   394.22     0  04:40           0        4.62       0.155
  WS02006245           JUNCTION      0.00   394.16     0  04:40           0        4.63       0.189
  WS02006247           JUNCTION      0.00   394.04     0  04:40           0        4.63       0.140
  WS02006248           JUNCTION      0.00   394.26     0  04:40           0        4.63       0.091
  WS02006249           JUNCTION      0.00   477.85     0  03:10           0         5.2       0.179
  WS02006239           JUNCTION      0.00   394.44     0  04:41           0        4.67       0.179
  WS02006251           JUNCTION      0.08   477.40     0  03:10     0.00217        5.25       0.154
  WS02006252           JUNCTION      0.00   400.00     0  04:10           0        4.74       0.007
  WS02006253           JUNCTION      3.75   143.69     0  03:01      0.0103       0.509       0.599
  WS02006256           JUNCTION      0.00   983.00     0  02:50           0        10.4       0.001
  WS02004138           JUNCTION      0.00   380.00     0  00:00           0        9.92       0.067
  WS02004139           JUNCTION      0.32   394.45     0  00:00     0.00905        9.92       0.463
  WS02004407           JUNCTION      0.00   939.89     0  03:02           0        10.5       0.071
  WS02006228           JUNCTION      0.00   913.69     0  03:03           0        10.7       0.113
  WS02006229           JUNCTION      0.00   919.78     0  03:01           0        10.7       0.106
  WS02006280           JUNCTION      0.00   680.02     0  03:02           0        2.43       0.012
  WS02006284           JUNCTION      0.10   678.89     0  03:02      0.0027        2.43       0.045
  WS02006287           JUNCTION      0.00   677.52     0  03:02           0        2.43       0.032
  WSF200               JUNCTION      0.00   938.53     0  03:04           0        10.4       0.042
  HS02004901           JUNCTION     37.63    37.63     0  03:01       0.103       0.103       1.742
  HS02004881           JUNCTION     14.26   140.54     0  03:01      0.0422       0.463       0.117
  HS02004876           JUNCTION     25.66   127.63     0  03:01      0.0814       0.422       0.130
  HS02004870           JUNCTION     26.26   103.59     0  03:01      0.0799        0.34       0.036
  HS02004862           JUNCTION     25.49    79.37     0  03:01      0.0888       0.261       0.068
  HS02004856           JUNCTION     19.64    55.41     0  03:01      0.0601       0.173       0.845
  HS02004852           JUNCTION      0.00    37.84     0  03:01           0       0.113       0.053
  HS02004848           JUNCTION     55.75    55.75     0  03:01       0.197       0.197       0.029
  HS02004842           JUNCTION      0.00    16.84     0  03:01           0       0.097      15.493
  HS02004837           JUNCTION     50.35    65.70     0  03:01       0.318       0.402       0.204
  HS02004830           JUNCTION      0.15    64.79     0  03:01     0.00423       0.392       0.316
  HS02004824           JUNCTION     65.57   128.45     0  03:01       0.251       0.642       0.086
  HS02004817           JUNCTION      0.60   124.47     0  03:01      0.0169       0.658       2.600
  HS02004807           JUNCTION     48.45   165.79     0  03:01       0.147       0.788       0.555
  HS02004802           JUNCTION      0.00   165.32     0  03:04           0       0.785       0.506
  HS02004799           JUNCTION     38.67   446.04     0  03:01       0.119        1.42       0.191
  HS02004792           JUNCTION    184.82   411.85     0  03:01        0.54         1.3       0.034
  HS02004788           JUNCTION     58.68   233.42     0  03:01       0.219       0.758       0.053
  HS02004785           JUNCTION      0.15   182.18     0  03:01     0.00423        0.54       0.093
  HS02004777           JUNCTION      0.03   185.01     0  03:01    0.000846       0.541       0.972
  HS02004770           JUNCTION    154.22   188.97     0  03:01       0.441       0.542       0.578
  HS02004480           JUNCTION      0.00   517.16     0  03:01           0        1.66       0.068
  HS02004479           JUNCTION      0.00    75.47     0  03:02           0       0.258       0.287
  HS02004478           JUNCTION      0.00   676.92     0  03:02           0        2.43       0.010
  YS02001745           JUNCTION    438.14   438.14     0  03:01        3.01        3.02       0.343
  YS02001748           JUNCTION      0.04   552.08     0  02:32     0.00127        3.01       0.688
  YS02001751           JUNCTION      0.01   444.44     0  03:01     0.00031        2.98       0.806
  YS02001754           JUNCTION      0.26   444.39     0  03:01     0.00733        2.96       0.842
  YS02001762           JUNCTION      0.00   314.26     0  02:42           0        2.11       1.017
  YS02001765           JUNCTION      0.00   313.25     0  02:42           0        2.11       1.171
  YS02001767           JUNCTION      0.54   312.97     0  02:42      0.0151        2.13       1.718
  YS02001770           JUNCTION    552.50   673.67     0  03:01        3.37        3.87       0.828
  YS02001774           JUNCTION      0.00   674.99     0  03:01           0        2.23       1.141
  YS02001779           JUNCTION      0.01   674.46     0  03:01    0.000141         2.2       0.713
  YS02001882           JUNCTION      0.00    31.22     0  02:37           0      0.0232      10.062
  YS02001884           JUNCTION      0.00    59.86     0  02:37           0      0.0603      11.573
  YS02001759           JUNCTION    536.49   619.25     0  02:43        3.11        4.68       0.492
  YS02001887           JUNCTION    679.97   681.38     0  03:01        3.56         3.6       0.241
  YS02001890           JUNCTION      0.00   681.38     0  03:01           0        3.55       0.260
  YS02001898           JUNCTION      0.00   518.52     0  02:57           0        3.45       0.094
  YS02001901           JUNCTION      0.00   518.03     0  02:58           0        3.45       0.199
  YS02001904           JUNCTION      0.00   517.80     0  03:03           0        3.44       0.180
  YS02001907           JUNCTION      0.00  1098.39     0  03:01           0        7.77       0.322
  YS02001910           JUNCTION      0.00   581.88     0  03:01           0        4.34       0.278
  YS02001915           JUNCTION    389.26   581.82     0  03:01        2.52        4.37       0.134
  YS02001918           JUNCTION      0.00   254.08     0  02:47           0        1.87       0.074
  YS02001619           JUNCTION    380.66   380.66     0  03:01        2.51        2.51       0.484
  YS02001629           JUNCTION      0.00   197.00     0  02:39           0        1.59       1.843
  YS02001641           JUNCTION      0.00   414.16     0  02:39           0        4.45       0.482
  YS02001644           JUNCTION    416.76  1524.94     0  03:01         2.9        10.5       0.250
  YS02001652           JUNCTION      0.00   501.93     0  03:01           0        2.63       0.890
  YS02001655           JUNCTION      0.15   502.28     0  03:01     0.00434        2.65       0.950
  YS02001920           JUNCTION      2.87   253.56     0  02:47      0.0809        1.86       0.157
  YS02001923           JUNCTION      0.04   239.47     0  02:47     0.00106        1.76       0.053
  YS02001926           JUNCTION      0.05   201.01     0  03:02     0.00147        1.76       0.192
  YS02001929           JUNCTION    189.18   189.18     0  03:01        1.75        1.75       0.036
  YS02001658           JUNCTION      0.00   565.13     0  02:30           0        2.68       0.827
  YS02001661           JUNCTION      0.00   661.78     0  02:43           0        3.03      -0.102
  YS02001664           JUNCTION    492.63   492.63     0  03:01        2.67        3.03       0.185
  YS02001622           JUNCTION      0.00   381.94     0  03:01           0         2.5       1.291
  YS02001633           JUNCTION    423.29   423.29     0  03:01        2.99        4.52       0.720
  YS02001649           JUNCTION      0.00   871.31     0  02:40           0        6.06       0.616
  YS02001757           JUNCTION      0.00  1680.35     0  02:40           0        9.89       0.936
  YS02001895           JUNCTION      0.00   518.16     0  02:57           0        3.45       0.146
  YS02001625           JUNCTION      0.00   409.18     0  03:01           0        2.48       1.599
  YS02163301           JUNCTION      0.00   203.31     0  02:31           0        1.57       1.572
  YS02163601           JUNCTION      0.11   414.05     0  02:39      0.0031        4.48       0.677
  YS02164001           JUNCTION      0.00   414.11     0  02:39           0        4.46       0.460
  YS02001647           JUNCTION      0.00   718.00     0  03:01           0        5.18       0.552
  YSB1154              JUNCTION     44.76    44.76     0  03:01       0.144       0.144       1.018
  YSB6556              JUNCTION      0.00    43.28     0  03:01           0       0.145       0.869
  YSB1174              JUNCTION     38.10    38.10     0  03:01       0.106       0.107       1.223
  YSB1171              JUNCTION      0.00    76.94     0  03:01           0       0.257       2.526
  YS02006553           JUNCTION      0.00   709.51     0  03:46           0        6.69       0.237
  YS02006561           JUNCTION      0.00   983.74     0  02:59           0        9.92       0.008
  YS02006556           JUNCTION      0.00   709.61     0  03:46           0        6.69       0.172
  YS02006558           JUNCTION    587.14   985.26     0  02:59        3.28        9.94       0.049
  YS02001783           JUNCTION      0.00   984.04     0  03:00           0        9.91       0.023
  YS02001784           JUNCTION      1.06   984.68     0  02:59      0.0299        9.94       0.037
  YS02001786           JUNCTION      0.06   984.83     0  03:00     0.00159        9.94       0.036
  YS02001788           JUNCTION      0.07   984.62     0  03:00       0.002        9.94       0.022
  YS02001790           JUNCTION      0.15   985.27     0  03:01     0.00437        9.94       0.020
  YS02001791           JUNCTION      0.00   985.21     0  03:01           0        9.94       0.009
  YS02001793           JUNCTION      0.00   985.81     0  03:01           0        9.94      -0.003
  WSC                  OUTFALL       0.00  1331.92     0  03:07           0        20.7       0.000
  JK-storage           STORAGE       0.00   985.16     0  03:01           0        10.1     -11.265
  CC-storage           STORAGE       0.00  1680.47     0  02:40           0         8.3       0.756
  XR-storage           STORAGE    1024.87  1024.87     0  03:01        12.7        13.3      -0.006
  
  
  **********************
  Node Surcharge Summary
  **********************
  
  Surcharging occurs when water rises above the top of the highest conduit.
  ---------------------------------------------------------------------
                                               Max. Height   Min. Depth
                                   Hours       Above Crown    Below Rim
  Node                 Type      Surcharged         Meters       Meters
  ---------------------------------------------------------------------
  WS02004401           JUNCTION        0.44          0.238        1.422
  WS02004402           JUNCTION        0.46          0.224        1.516
  WS02004403           JUNCTION        0.47          0.201        1.829
  WS02004404           JUNCTION        0.58          0.244        2.536
  WS02004406           JUNCTION        0.54          0.164        2.286
  WS02004413           JUNCTION        0.18          0.023        2.177
  WS02004405           JUNCTION        0.56          0.222        2.578
  WS02006109           JUNCTION        4.50          0.839        0.981
  WS02006110           JUNCTION        2.50          0.541        1.309
  WS02006111           JUNCTION        0.13          0.075        1.795
  WS02006112           JUNCTION        3.36          0.560        1.120
  WS02006113           JUNCTION        0.15          0.123        1.807
  WS02006115           JUNCTION        0.34          0.208        2.042
  WS02006116           JUNCTION        0.36          0.200        2.090
  WS02006230           JUNCTION        1.94          0.795        0.775
  WS02006231           JUNCTION        2.49          0.812        0.718
  WS02006232           JUNCTION        4.14          0.928        0.552
  WS02006234           JUNCTION        3.49          0.808        0.432
  WS02006235           JUNCTION        3.68          0.829        0.461
  WS02006238           JUNCTION        3.77          0.839        0.591
  WS02006240           JUNCTION        3.40          0.691        0.699
  WS02006242           JUNCTION        3.54          0.695        0.125
  WS02006243           JUNCTION        2.90          0.569        0.201
  WS02006245           JUNCTION        2.37          0.502        0.348
  WS02006247           JUNCTION        2.39          0.485        0.275
  WS02006248           JUNCTION        2.16          0.380        0.000
  WS02006249           JUNCTION        2.23          0.390        0.000
  WS02006239           JUNCTION        3.55          0.747        0.543
  WS02006251           JUNCTION        1.59          0.222        0.958
  WS02006252           JUNCTION        2.56          0.382        0.718
  WS02006253           JUNCTION        1.63          0.446        2.034
  WS02006256           JUNCTION        6.78          2.050        0.000
  WS02006228           JUNCTION        4.47          0.998        1.202
  YS02001748           JUNCTION        5.22          0.391        0.799
  YS02001751           JUNCTION        5.37          0.578        0.622
  YS02001754           JUNCTION        5.58          0.800        0.350
  YS02001762           JUNCTION        5.75          1.040        0.110
  YS02001765           JUNCTION        5.72          0.988        0.112
  YS02001767           JUNCTION        5.69          0.949        0.081
  YS02001770           JUNCTION        5.68          0.904        0.016
  YS02001774           JUNCTION        5.74          0.987        0.063
  YS02001779           JUNCTION        5.56          0.680        0.000
  YS02001882           JUNCTION        1.11          0.635        0.195
  YS02001884           JUNCTION        1.13          0.674        0.196
  YS02001759           JUNCTION        5.78          1.080        0.130
  YS02001887           JUNCTION        1.19          0.765        0.185
  YS02001890           JUNCTION        1.22          0.760        0.000
  YS02001898           JUNCTION        1.08          0.532        0.208
  YS02001901           JUNCTION        1.16          0.677        0.193
  YS02001904           JUNCTION        1.15          0.637        0.213
  YS02001907           JUNCTION        1.92          0.950        0.000
  YS02001910           JUNCTION        1.26          0.782        0.318
  YS02001915           JUNCTION        1.10          0.609        0.391
  YS02001918           JUNCTION        0.93          0.297        0.513
  YS02001619           JUNCTION        5.37          0.610        0.000
  YS02001629           JUNCTION        5.38          0.470        0.000
  YS02001641           JUNCTION        5.73          0.937        0.163
  YS02001644           JUNCTION        5.73          0.920        0.000
  YS02001652           JUNCTION        5.61          1.130        0.000
  YS02001655           JUNCTION        5.40          1.188        0.012
  YS02001920           JUNCTION        0.96          0.378        0.762
  YS02001658           JUNCTION        5.25          1.099        0.201
  YS02001661           JUNCTION        0.15          1.177        0.213
  YS02001622           JUNCTION        5.41          0.620        0.000
  YS02001633           JUNCTION        5.71          0.925        0.135
  YS02001649           JUNCTION        5.75          1.050        0.000
  YS02001757           JUNCTION        5.86          1.172        0.038
  YS02001895           JUNCTION        1.09          0.566        0.184
  YS02001625           JUNCTION        5.64          0.780        0.000
  YS02163301           JUNCTION        5.68          0.881        0.149
  YS02163601           JUNCTION        5.75          0.991        0.089
  YS02164001           JUNCTION        5.72          0.922        0.178
  YS02001647           JUNCTION        5.62          0.802        0.098
  YS02006553           JUNCTION        2.00          0.970        0.220
  YS02006561           JUNCTION        0.98          0.279        0.871
  YS02006556           JUNCTION        1.47          0.892        0.458
  YS02006558           JUNCTION        1.43          0.878        0.522
  YS02001783           JUNCTION        1.27          0.979        0.621
  YS02001784           JUNCTION        1.25          0.781        0.709
  YS02001786           JUNCTION        1.19          0.838        0.592
  YS02001788           JUNCTION        1.14          0.685        0.795
  YS02001790           JUNCTION        1.91          1.157        0.000
  YS02001791           JUNCTION        2.00          1.920        0.000
  YS02001793           JUNCTION        2.25          2.600        0.000
  
  
  *********************
  Node Flooding Summary
  *********************
  
  Flooding refers to all water that overflows a node, whether it ponds or not.
  --------------------------------------------------------------------------
                                                             Total   Maximum
                                 Maximum   Time of Max       Flood    Ponded
                        Hours       Rate    Occurrence      Volume     Depth
  Node                 Flooded       LPS   days hr:min    10^6 ltr    Meters
  --------------------------------------------------------------------------
  WS02006248              0.07     14.76      0  03:03       0.002     0.000
  WS02006249              1.56    339.61      0  03:04       0.561     0.000
  WS02006256              4.14    830.98      0  03:02       6.972     0.000
  YS02001779              2.67    674.21      0  03:01       2.182     0.000
  YS02001890              0.34    165.07      0  03:01       0.085     0.000
  YS02001907              0.80    701.47      0  03:01       1.067     0.000
  YS02001619              0.01     24.30      0  02:32       0.000     0.000
  YS02001629              0.01     19.06      0  02:32       0.000     0.000
  YS02001644              4.14   1524.63      0  03:01       8.494     0.000
  YS02001652              0.01      9.11      0  02:49       0.000     0.000
  YS02001622              0.01     16.51      0  02:32       0.000     0.000
  YS02001649              0.02     30.27      0  02:49       0.001     0.000
  YS02001625              1.40    408.60      0  03:01       0.854     0.000
  YS02001790              0.01    163.34      0  04:46       0.000     0.000
  YS02001791              0.01    191.13      0  04:45       0.000     0.000
  YS02001793              0.01    292.00      0  04:43       0.000     0.000
  JK-storage              0.76    768.45      0  02:40       0.906     0.000
  XR-storage              3.46    644.68      0  03:01       2.615     0.000
  
  
  **********************
  Storage Volume Summary
  **********************
  
  --------------------------------------------------------------------------------------------------
                         Average     Avg  Evap Exfil       Maximum     Max    Time of Max    Maximum
                          Volume    Pcnt  Pcnt  Pcnt        Volume    Pcnt     Occurrence    Outflow
  Storage Unit           1000 m3    Full  Loss  Loss       1000 m3    Full    days hr:min        LPS
  --------------------------------------------------------------------------------------------------
  JK-storage               0.149      51     0     0         0.291     100       0  02:35     983.00
  CC-storage               3.223      21     0     0         3.965      25       0  03:23     400.00
  XR-storage               0.804      87     0     0         0.926     100       0  02:59     380.00
  
  
  ***********************
  Outfall Loading Summary
  ***********************
  
  ---------------------------------------------------------------------------------------------------------------------------------
                         Flow       Avg       Max       Total         Total         Total         Total         Total         Total
                         Freq      Flow      Flow      Volume           COD            SS            TN            TP         NH4-N
  Outfall Node           Pcnt       LPS       LPS    10^6 ltr            kg            kg            kg            kg            kg
  ---------------------------------------------------------------------------------------------------------------------------------
  WSC                  100.00    830.16   1331.92      20.702      2443.874      4233.914       150.212        17.543        90.558
  ---------------------------------------------------------------------------------------------------------------------------------
  System               100.00    830.16   1331.92      20.702      2443.874      4233.914       150.212        17.543        90.558
  
  
  ********************
  Link Flow Summary
  ********************
  
  -----------------------------------------------------------------------------
                                 Maximum  Time of Max   Maximum    Max/    Max/
                                  |Flow|   Occurrence   |Veloc|    Full    Full
  Link                 Type          LPS  days hr:min     m/sec    Flow   Depth
  -----------------------------------------------------------------------------
  WS02003066WSF200     CONDUIT    938.53     0  03:04      3.00    0.16    0.32
  WS02006287WS02006284 CONDUIT    678.80     0  03:02      2.38    0.31    0.39
  WS02006284WS02006280 CONDUIT    680.02     0  03:02      2.62    0.28    0.37
  WS02006280WS02006229 CONDUIT    680.08     0  03:02      3.90    0.15    0.50
  WS02006229WS02006228 CONDUIT    913.69     0  03:03      1.82    3.03    1.00
  WS02006256WS02006235 CONDUIT    264.10     0  00:12      3.74    2.80    1.00
  WS02006253WS02006251 CONDUIT    143.86     0  03:01      0.64    0.43    1.00
  WS02006252WS02006251 CONDUIT    404.19     0  06:50      3.22    1.48    1.00
  WS02006251WS02006249 CONDUIT    477.85     0  03:10      1.24    1.38    1.00
  WS02006249WS02006248 CONDUIT    394.26     0  04:40      1.14    2.16    1.00
  WS02006248WS02006247 CONDUIT    394.04     0  04:40      1.10    0.86    1.00
  WS02006247WS02006245 CONDUIT    394.16     0  04:40      1.08    3.13    1.00
  WS02006245WS02006243 CONDUIT    394.22     0  04:40      1.09    1.17    1.00
  WS02006243WS02006242 CONDUIT    394.18     0  04:40      1.02    0.84    1.00
  WS02006242WS02006240 CONDUIT    394.25     0  04:40      1.02    1.57    1.00
  WS02006240WS02006239 CONDUIT    394.44     0  04:41      1.02    1.24    1.00
  WS02006239WS02006238 CONDUIT    394.56     0  04:41      1.03    1.26    1.00
  WS02006238WS02006235 CONDUIT    396.14     0  04:41      1.05    0.88    1.00
  WS02006235WS02006234 CONDUIT    523.89     0  06:51      1.36    5.53    1.00
  WS02006234WS02006232 CONDUIT    524.36     0  06:51      1.36    1.06    1.00
  WS02006232WS02006231 CONDUIT    524.23     0  06:51      1.36    1.10    1.00
  WS02006231WS02006230 CONDUIT    524.38     0  06:51      1.38    7.95    1.00
  WS02006230WS02006229 CONDUIT    536.21     0  06:51      1.39   11.93    1.00
  WS02006228WS02006109 CONDUIT    913.86     0  03:03      1.82    3.99    1.00
  WS02006116WS02004401 CONDUIT    939.77     0  03:02      1.20    1.30    1.00
  WS02006115WS02006116 CONDUIT    939.66     0  03:02      1.20    1.21    1.00
  WS02006113WS02006111 CONDUIT    915.42     0  03:03      2.59    1.10    1.00
  WS02006112WS02006115 CONDUIT    939.13     0  03:02      1.20    0.55    1.00
  WS02006111WS02006112 CONDUIT    915.94     0  03:02      1.82    0.44    1.00
  WS02006110WS02006113 CONDUIT    915.15     0  03:02      1.82    0.83    1.00
  WS02006109WS02006110 CONDUIT    915.22     0  03:03      1.82    1.76    1.00
  WS02004411WS02004412 CONDUIT    937.33     0  03:03      1.24    1.33    0.92
  WS02004401WS02004402 CONDUIT    940.06     0  03:02      1.20    1.13    1.00
  WS02004413WS02003067 CONDUIT    937.82     0  03:04      1.55    0.40    0.72
  WS02004412WS02004413 CONDUIT    937.73     0  03:04      1.22    0.63    0.95
  WS02004410WS02004411 CONDUIT    937.58     0  03:03      1.23    1.28    0.94
  WS02004409WS02004410 CONDUIT    938.29     0  03:03      1.22    1.21    0.95
  WS02004407WS02004409 CONDUIT    939.41     0  03:02      1.68    0.33    0.68
  WS02004406WS02004407 CONDUIT    939.89     0  03:02      1.60    0.42    0.70
  WS02004405WS02004406 CONDUIT    940.02     0  03:02      1.20    1.85    1.00
  WS02004404WS02004405 CONDUIT    941.17     0  03:02      1.20    9.22    1.00
  WS02004403WS02004404 CONDUIT    940.50     0  03:02      1.20    0.68    1.00
  WS02004402WS02004403 CONDUIT    939.63     0  03:02      1.20    1.35    1.00
  WS02004139WS02001211 CONDUIT    383.19     0  03:27      0.90    0.48    0.64
  WS02004138WS02004139 CONDUIT    394.13     0  00:00      3.62    0.08    0.47
  WS02003067WS02003066 CONDUIT    938.35     0  03:04      1.65    0.30    0.50
  WS02001213WS02003059 CONDUIT    401.05     0  03:25      0.89    0.66    0.87
  WS02001212WS02001213 CONDUIT    396.93     0  03:26      1.32    0.61    0.56
  WS02001211WS02001212 CONDUIT    393.86     0  03:26      0.78    0.30    0.71
  WS02003072WS02003073 CONDUIT   1329.68     0  03:06      1.96    2.87    0.58
  WS02003069WS02003072 CONDUIT   1329.41     0  03:06      1.82    0.64    0.62
  WS02003060WS02003069 CONDUIT   1329.31     0  03:05      2.03    0.52    0.56
  WS02003059WS02003060 CONDUIT    406.36     0  03:25      0.95    0.27    0.77
  HS02004901HS02004770 CONDUIT     37.24     0  03:01      0.10    0.14    0.53
  HS02004876HS02004881 CONDUIT    127.62     0  03:01      1.21    1.36    0.15
  HS02004870HS02004876 CONDUIT    103.08     0  03:01      0.82    0.07    0.18
  HS02004842HS02004848 CONDUIT     16.84     0  03:01      0.07    0.01    0.33
  HS02004837HS02004842 CONDUIT     17.91     0  03:03      0.42    0.01    0.35
  HS02004830HS02004837 CONDUIT     64.64     0  03:01      0.67    0.06    0.14
  HS02004824HS02004830 CONDUIT     64.11     0  03:02      0.62    0.08    0.16
  HS02004817HS02004824 CONDUIT    123.87     0  03:01      0.31    0.06    0.58
  HS02004770HS02004777 CONDUIT    184.98     0  03:01      0.49    0.34    0.54
  HS02004799HS02004480 CONDUIT    444.30     0  03:01      1.07    0.56    0.60
  HS02004792HS02004799 CONDUIT    408.42     0  03:01      1.20    0.25    0.49
  HS02004788HS02004792 CONDUIT    232.93     0  03:02      1.28    0.15    0.26
  HS02004785HS02004788 CONDUIT    181.74     0  03:02      0.91    1.37    0.29
  HS02004777HS02004785 CONDUIT    182.03     0  03:01      0.57    0.22    0.45
  HS02004480HS02004478 CONDUIT    517.26     0  03:01      1.55    2.18    0.48
  HS02004479HS02004480 CONDUIT     77.29     0  03:02      0.30    0.07    0.57
  HS02004862HS02004870 CONDUIT     79.01     0  03:01      0.80    0.09    0.14
  HS02004848HS02004852 CONDUIT     37.84     0  03:01      0.53    0.04    0.10
  HS02004856HS02004862 CONDUIT     54.76     0  03:01      0.59    0.05    0.13
  HS02004852HS02004856 CONDUIT     37.75     0  03:02      0.34    0.04    0.16
  HS02004802HS02004478 CONDUIT    170.13     0  03:04      0.54    0.15    0.48
  HS02004478WS02006287 CONDUIT    677.52     0  03:02      2.11    0.19    0.36
  HS02004817HS02004807 CONDUIT    128.13     0  03:04      0.25    0.08    0.75
  HS02004807HS02004802 CONDUIT    165.32     0  03:04      0.46    0.32    0.53
  YS02001759YS02001757 CONDUIT    619.75     0  02:43      0.79    0.44    1.00
  YS02001762YS02001759 CONDUIT    315.04     0  02:42      0.40    0.36    1.00
  YS02001765YS02001762 CONDUIT    314.26     0  02:42      0.40    0.29    1.00
  YS02001770YS02001767 CONDUIT    312.43     0  02:42      0.40    1.24    1.00
  YS02001774YS02001770 CONDUIT    674.99     0  03:01      0.86    0.43    1.00
  YS02001779YS02001774 CONDUIT    674.45     0  03:01      0.86    0.34    1.00
  YS02001649YS02001757 CONDUIT    872.83     0  02:40      1.11    0.53    1.00
  YS02001767YS02001765 CONDUIT    313.25     0  02:42      0.40    0.39    1.00
  YS02006561YS02001783 CONDUIT    984.04     0  03:00      2.14    0.51    1.00
  YS02001783YS02001784 CONDUIT    983.62     0  02:59      1.96    1.36    1.00
  YS02001784YS02001785 CONDUIT    984.77     0  03:00      1.96    2.29    1.00
  YS02001788YS02001790 CONDUIT    985.12     0  03:01      2.44    0.73    1.00
  YS02001790YS02001791 CONDUIT    985.21     0  03:01      2.91    1.07    1.00
  YS02001791YS02001793 CONDUIT    985.81     0  03:01      5.77    0.42    1.00
  YS02001910YS02001907 CONDUIT    582.18     0  03:01      0.74    0.33    1.00
  YS02001786YS02001788 CONDUIT    984.55     0  03:00      2.31    1.90    1.00
  YS02001915YS02001910 CONDUIT    581.88     0  03:01      0.74    0.29    1.00
  YS02001918YS02001915 CONDUIT    254.65     0  02:47      0.44    0.14    1.00
  YS02001923YS02001920 CONDUIT    250.69     0  02:47      0.75    0.11    1.00
  YS02001926YS02001923 CONDUIT    239.43     0  02:47      0.86    0.34    0.94
  YS02001929YS02001926 CONDUIT    200.95     0  03:02      0.92    0.10    0.83
  YS02001920YS02001918 CONDUIT    254.08     0  02:47      0.72    0.25    1.00
  YS02001629YS02163301 CONDUIT    203.31     0  02:31      0.26    0.25    1.00
  YS02001619YS02001622 CONDUIT    381.94     0  03:01      0.59    0.56    1.00
  YS02001622YS02001625 CONDUIT    380.80     0  03:01      0.48    0.20    1.00
  YS02001625YS02001629 CONDUIT    197.00     0  02:39      0.25    0.09    1.00
  YS02163301YS02001633 CONDUIT    206.01     0  02:33      0.26    0.19    1.00
  YS02163601YS02164001 CONDUIT    414.11     0  02:39      0.53    0.37    1.00
  YS02164001YS02001641 CONDUIT    414.16     0  02:39      0.53    0.57    1.00
  YS02001641YS02001644 CONDUIT    413.65     0  02:39      0.53    1.34    1.00
  YS02001647YS02001649 CONDUIT    718.00     0  03:01      0.91    0.38    1.00
  YS02006553YS02006556 CONDUIT    709.61     0  03:46      0.90    0.61    1.00
  YS02006556YS02006558 CONDUIT    709.82     0  03:46      0.90    0.56    1.00
  YSB6556YSB1171       CONDUIT     42.82     0  03:02      0.13    0.04    0.82
  YS02001907YS02006553 CONDUIT    709.51     0  03:46      0.79    0.83    1.00
  YS02006558YS02006561 CONDUIT    983.74     0  02:59      3.48    2.17    1.00
  YS02001633YS02163601 CONDUIT    413.94     0  02:39      0.53    0.43    1.00
  YS02001644YS02001647 CONDUIT    717.67     0  03:01      0.91    0.42    1.00
  YS02001745YS02001748 CONDUIT    552.04     0  02:32      1.46    0.21    0.98
  YS02001748YS02001751 CONDUIT    444.43     0  03:01      1.03    0.22    1.00
  YS02001751YS02001754 CONDUIT    444.13     0  03:01      0.88    0.21    1.00
  YS02001754YS02001757 CONDUIT    444.44     0  03:01      0.57    0.18    1.00
  YS02001882YS02001884 CONDUIT     31.22     0  02:37      0.12    0.04    1.00
  YS02001884YS02001887 CONDUIT     59.86     0  02:37      0.08    0.08    1.00
  YS02001890YS02001895 CONDUIT    518.16     0  02:57      0.66    0.24    1.00
  YS02001895YS02001898 CONDUIT    518.52     0  02:57      0.66    0.90    1.00
  YS02001898YS02001901 CONDUIT    518.03     0  02:58      0.66    0.33    1.00
  YS02001901YS02001904 CONDUIT    517.80     0  03:03      0.66    0.80    1.00
  YS02001904YS02001907 CONDUIT    517.89     0  02:59      0.66    0.18    1.00
  YS02001887YS02001890 CONDUIT    681.38     0  03:01      0.87    1.17    1.00
  YS02001652YS02001649 CONDUIT    501.47     0  03:01      0.64    0.25    1.00
  YS02001655YS02001652 CONDUIT    501.93     0  03:01      0.94    0.24    1.00
  YS02001658YS02001655 CONDUIT    502.13     0  03:01      1.18    0.21    1.00
  YS02001661YS02001658 CONDUIT    565.13     0  02:30      1.52    0.22    1.00
  YS02001664YS02001661 CONDUIT    661.78     0  02:43      1.42    0.21    0.77
  YSB1154YSB6556       CONDUIT     43.28     0  03:01      0.18    0.08    0.73
  YSB1174YSB1171       CONDUIT     36.65     0  03:01      0.11    0.06    0.85
  YSB1171HS02004479    CONDUIT     75.47     0  03:02      0.54    0.05    0.68
  HS02004881HS02006253 CONDUIT    140.46     0  03:01      2.33    0.03    0.54
  YS02001793JiankangQianchi CONDUIT    985.16     0  03:01     16.61    0.08    1.00
  YS02001757CaochengTiaoxuchi CONDUIT   1680.47     0  02:40      2.17    0.74    1.00
  WSF200WS02003060     CONDUIT    938.88     0  03:04      1.93    0.21    0.45
  1                    CONDUIT   1331.92     0  03:07      3.59    0.46    0.48
  CC-Pump-1            PUMP       200.00     0  03:00              1.00
  CC-Pump-2            PUMP       200.00     0  04:10              1.00
  JK-Pump-1            PUMP       300.00     0  02:00              1.00
  JK-Pump-2            PUMP       683.00     0  02:50              1.00
  XR-Pump-1            PUMP        95.00     0  00:00              1.00
  XR-Pump-2            PUMP        95.00     0  00:00              1.00
  XR-Pump-3            PUMP        95.00     0  00:00              1.00
  XR-Pump-4            PUMP        95.00     0  00:00              1.00
  
  
  ***************************
  Flow Classification Summary
  ***************************
  
  -------------------------------------------------------------------------------------
                      Adjusted    ---------- Fraction of Time in Flow Class ---------- 
                       /Actual         Up    Down  Sub   Sup   Up    Down  Norm  Inlet 
  Conduit               Length    Dry  Dry   Dry   Crit  Crit  Crit  Crit  Ltd   Ctrl  
  -------------------------------------------------------------------------------------
  WS02003066WSF200        1.00   0.01  0.04  0.00  0.00  0.95  0.00  0.00  0.37  0.00
  WS02006287WS02006284    1.00   0.03  0.01  0.00  0.61  0.35  0.00  0.00  0.65  0.00
  WS02006284WS02006280    1.00   0.04  0.00  0.00  0.00  0.00  0.00  0.96  0.00  0.00
  WS02006280WS02006229    1.00   0.04  0.00  0.00  0.01  0.02  0.00  0.94  0.01  0.00
  WS02006229WS02006228    1.00   0.00  0.00  0.00  1.00  0.00  0.00  0.00  0.00  0.00
  WS02006256WS02006235    1.00   0.00  0.00  0.00  0.99  0.00  0.00  0.00  0.00  0.00
  WS02006253WS02006251    1.00   0.01  0.02  0.00  0.96  0.00  0.00  0.00  0.00  0.00
  WS02006252WS02006251    1.00   0.17  0.00  0.00  0.14  0.00  0.69  0.00  0.00  0.00
  WS02006251WS02006249    1.00   0.00  0.00  0.00  1.00  0.00  0.00  0.00  0.22  0.00
  WS02006249WS02006248    1.00   0.00  0.00  0.00  0.91  0.00  0.09  0.00  0.00  0.00
  WS02006248WS02006247    1.00   0.00  0.00  0.00  0.99  0.00  0.00  0.01  0.13  0.00
  WS02006247WS02006245    1.00   0.01  0.00  0.00  0.99  0.00  0.00  0.00  0.00  0.00
  WS02006245WS02006243    1.00   0.01  0.00  0.00  0.96  0.00  0.00  0.03  0.01  0.00
  WS02006243WS02006242    1.00   0.01  0.00  0.00  0.99  0.00  0.00  0.00  0.19  0.00
  WS02006242WS02006240    1.00   0.01  0.00  0.00  0.99  0.00  0.00  0.00  0.00  0.00
  WS02006240WS02006239    1.00   0.01  0.00  0.00  0.95  0.00  0.00  0.04  0.01  0.00
  WS02006239WS02006238    1.00   0.01  0.00  0.00  0.99  0.00  0.00  0.00  0.12  0.00
  WS02006238WS02006235    1.00   0.01  0.00  0.00  0.99  0.00  0.00  0.00  0.00  0.00
  WS02006235WS02006234    1.00   0.01  0.00  0.00  0.96  0.00  0.04  0.00  0.00  0.00
  WS02006234WS02006232    1.00   0.01  0.00  0.00  0.99  0.00  0.00  0.00  0.08  0.00
  WS02006232WS02006231    1.00   0.01  0.00  0.00  0.99  0.00  0.00  0.00  0.00  0.00
  WS02006231WS02006230    1.00   0.01  0.00  0.00  0.76  0.00  0.23  0.00  0.00  0.00
  WS02006230WS02006229    1.00   0.00  0.00  0.00  0.99  0.00  0.00  0.01  0.00  0.00
  WS02006228WS02006109    1.00   0.00  0.00  0.00  1.00  0.00  0.00  0.00  0.00  0.00
  WS02006116WS02004401    1.00   0.01  0.00  0.00  0.99  0.00  0.00  0.00  0.00  0.00
  WS02006115WS02006116    1.00   0.01  0.00  0.00  0.98  0.00  0.00  0.00  0.00  0.00
  WS02006113WS02006111    1.00   0.01  0.00  0.00  0.04  0.95  0.00  0.00  0.14  0.00
  WS02006112WS02006115    1.00   0.01  0.00  0.00  0.99  0.00  0.00  0.00  0.00  0.00
  WS02006111WS02006112    1.00   0.01  0.00  0.00  0.99  0.00  0.00  0.00  0.89  0.00
  WS02006110WS02006113    1.00   0.00  0.01  0.00  0.99  0.00  0.00  0.00  0.00  0.00
  WS02006109WS02006110    1.00   0.00  0.00  0.00  0.99  0.00  0.00  0.00  0.00  0.00
  WS02004411WS02004412    1.00   0.02  0.00  0.00  0.98  0.00  0.00  0.00  0.00  0.00
  WS02004401WS02004402    1.00   0.01  0.00  0.00  0.99  0.00  0.00  0.00  0.00  0.00
  WS02004413WS02003067    1.00   0.03  0.02  0.00  0.00  0.00  0.96  0.00  0.00  0.00
  WS02004412WS02004413    1.00   0.02  0.00  0.00  0.98  0.00  0.00  0.00  0.02  0.00
  WS02004410WS02004411    1.00   0.02  0.00  0.00  0.98  0.00  0.00  0.00  0.03  0.00
  WS02004409WS02004410    1.00   0.02  0.00  0.00  0.98  0.00  0.00  0.00  0.04  0.00
  WS02004407WS02004409    1.00   0.02  0.00  0.00  0.97  0.00  0.00  0.00  0.91  0.00
  WS02004406WS02004407    1.00   0.00  0.02  0.00  0.98  0.00  0.00  0.00  0.00  0.00
  WS02004405WS02004406    1.00   0.00  0.00  0.00  1.00  0.00  0.00  0.00  0.02  0.00
  WS02004404WS02004405    1.00   0.00  0.00  0.00  1.00  0.00  0.00  0.00  0.00  0.00
  WS02004403WS02004404    1.00   0.00  0.01  0.00  0.99  0.00  0.00  0.00  0.00  0.00
  WS02004402WS02004403    1.00   0.01  0.00  0.00  0.99  0.00  0.00  0.00  0.00  0.00
  WS02004139WS02001211    1.00   0.00  0.00  0.00  1.00  0.00  0.00  0.00  0.00  0.00
  WS02004138WS02004139    1.00   0.00  0.00  0.00  1.00  0.00  0.00  0.00  1.00  0.00
  WS02003067WS02003066    1.00   0.04  0.01  0.00  0.95  0.00  0.00  0.00  0.00  0.00
  WS02001213WS02003059    1.00   0.00  0.00  0.00  1.00  0.00  0.00  0.00  0.00  0.00
  WS02001212WS02001213    1.00   0.00  0.00  0.00  0.92  0.00  0.08  0.00  0.00  0.00
  WS02001211WS02001212    1.00   0.00  0.00  0.00  1.00  0.00  0.00  0.00  0.00  0.00
  WS02003072WS02003073    1.00   0.00  0.00  0.00  0.00  0.00  0.00  1.00  0.00  0.00
  WS02003069WS02003072    1.00   0.00  0.00  0.00  1.00  0.00  0.00  0.00  0.13  0.00
  WS02003060WS02003069    1.00   0.00  0.00  0.00  0.99  0.01  0.00  0.00  0.10  0.00
  WS02003059WS02003060    1.00   0.00  0.00  0.00  1.00  0.00  0.00  0.00  0.00  0.00
  HS02004901HS02004770    1.00   0.03  0.00  0.00  0.97  0.00  0.00  0.00  0.00  0.00
  HS02004876HS02004881    1.00   0.00  0.00  0.00  0.93  0.07  0.00  0.00  0.00  0.00
  HS02004870HS02004876    1.00   0.00  0.00  0.00  1.00  0.00  0.00  0.00  0.95  0.00
  HS02004842HS02004848    1.00   0.00  0.03  0.00  0.97  0.00  0.00  0.00  0.54  0.00
  HS02004837HS02004842    1.00   0.00  0.00  0.00  1.00  0.00  0.00  0.00  0.11  0.00
  HS02004830HS02004837    1.00   0.00  0.00  0.00  1.00  0.00  0.00  0.00  0.99  0.00
  HS02004824HS02004830    1.00   0.00  0.00  0.00  1.00  0.00  0.00  0.00  0.01  0.00
  HS02004817HS02004824    1.00   0.00  0.00  0.00  1.00  0.00  0.00  0.00  0.97  0.00
  HS02004770HS02004777    1.00   0.00  0.03  0.00  0.97  0.00  0.00  0.00  0.03  0.00
  HS02004799HS02004480    1.00   0.00  0.01  0.00  0.96  0.00  0.03  0.00  0.00  0.00
  HS02004792HS02004799    1.00   0.00  0.00  0.00  1.00  0.00  0.00  0.00  0.98  0.00
  HS02004788HS02004792    1.00   0.00  0.00  0.00  1.00  0.00  0.00  0.00  0.98  0.00
  HS02004785HS02004788    1.00   0.00  0.00  0.00  1.00  0.00  0.00  0.00  0.00  0.00
  HS02004777HS02004785    1.00   0.00  0.00  0.00  1.00  0.00  0.00  0.00  0.12  0.00
  HS02004480HS02004478    1.00   0.04  0.00  0.00  0.71  0.00  0.00  0.26  0.00  0.00
  HS02004479HS02004480    1.00   0.01  0.00  0.00  0.99  0.00  0.00  0.00  0.12  0.00
  HS02004862HS02004870    1.00   0.00  0.00  0.00  1.00  0.00  0.00  0.00  0.04  0.00
  HS02004848HS02004852    1.00   0.03  0.00  0.00  0.97  0.00  0.00  0.00  0.64  0.00
  HS02004856HS02004862    1.00   0.00  0.04  0.00  0.96  0.00  0.00  0.00  0.83  0.00
  HS02004852HS02004856    1.00   0.03  0.00  0.00  0.96  0.00  0.00  0.00  0.81  0.00
  HS02004802HS02004478    1.00   0.04  0.00  0.00  0.96  0.00  0.00  0.00  0.02  0.00
  HS02004478WS02006287    1.00   0.04  0.00  0.00  0.79  0.17  0.00  0.00  0.65  0.00
  HS02004817HS02004807    1.00   0.00  0.03  0.00  0.97  0.00  0.00  0.00  0.01  0.00
  HS02004807HS02004802    1.00   0.03  0.00  0.00  0.96  0.00  0.00  0.00  0.00  0.00
  YS02001759YS02001757    1.00   0.00  0.00  0.00  1.00  0.00  0.00  0.00  0.16  0.00
  YS02001762YS02001759    1.00   0.00  0.00  0.00  1.00  0.00  0.00  0.00  0.03  0.00
  YS02001765YS02001762    1.00   0.00  0.00  0.00  1.00  0.00  0.00  0.00  0.14  0.00
  YS02001770YS02001767    1.00   0.00  0.00  0.00  1.00  0.00  0.00  0.00  0.00  0.00
  YS02001774YS02001770    1.00   0.00  0.04  0.00  0.96  0.00  0.00  0.00  0.03  0.00
  YS02001779YS02001774    1.00   0.00  0.00  0.00  1.00  0.00  0.00  0.00  0.19  0.00
  YS02001649YS02001757    1.00   0.00  0.00  0.00  1.00  0.00  0.00  0.00  0.16  0.00
  YS02001767YS02001765    1.00   0.00  0.00  0.00  1.00  0.00  0.00  0.00  0.00  0.00
  YS02006561YS02001783    1.00   0.05  0.00  0.00  0.38  0.57  0.00  0.00  0.46  0.00
  YS02001783YS02001784    1.00   0.00  0.05  0.00  0.95  0.00  0.00  0.00  0.01  0.00
  YS02001784YS02001785    1.00   0.00  0.00  0.00  1.00  0.00  0.00  0.00  0.18  0.00
  YS02001788YS02001790    1.00   0.00  0.00  0.00  0.42  0.58  0.00  0.00  0.38  0.00
  YS02001790YS02001791    1.00   0.00  0.00  0.00  0.39  0.61  0.00  0.00  0.47  0.00
  YS02001791YS02001793    1.00   0.00  0.00  0.00  0.43  0.57  0.00  0.00  0.02  0.00
  YS02001910YS02001907    1.00   0.00  0.00  0.00  0.99  0.00  0.00  0.01  0.12  0.00
  YS02001786YS02001788    1.00   0.00  0.00  0.00  0.40  0.60  0.00  0.00  0.00  0.00
  YS02001915YS02001910    1.00   0.00  0.00  0.00  0.99  0.01  0.00  0.00  0.16  0.00
  YS02001918YS02001915    1.00   0.00  0.00  0.00  0.99  0.00  0.00  0.00  0.53  0.00
  YS02001923YS02001920    1.00   0.00  0.00  0.00  1.00  0.00  0.00  0.00  0.82  0.00
  YS02001926YS02001923    1.00   0.00  0.02  0.00  0.16  0.00  0.82  0.00  0.00  0.00
  YS02001929YS02001926    1.00   0.00  0.03  0.00  0.97  0.00  0.00  0.00  0.74  0.00
  YS02001920YS02001918    1.00   0.00  0.00  0.00  1.00  0.00  0.00  0.00  0.00  0.00
  YS02001629YS02163301    1.00   0.04  0.00  0.00  0.96  0.00  0.00  0.00  0.00  0.00
  YS02001619YS02001622    1.00   0.03  0.00  0.00  0.97  0.00  0.00  0.00  0.00  0.00
  YS02001622YS02001625    1.00   0.03  0.00  0.00  0.97  0.00  0.00  0.00  0.05  0.00
  YS02001625YS02001629    1.00   0.03  0.02  0.00  0.93  0.00  0.02  0.00  0.00  0.00
  YS02163301YS02001633    1.00   0.00  0.04  0.00  0.96  0.00  0.00  0.00  0.00  0.00
  YS02163601YS02164001    1.00   0.00  0.02  0.00  0.98  0.00  0.00  0.00  0.00  0.00
  YS02164001YS02001641    1.00   0.00  0.02  0.00  0.98  0.00  0.00  0.00  0.06  0.00
  YS02001641YS02001644    1.00   0.00  0.00  0.00  1.00  0.00  0.00  0.00  0.00  0.00
  YS02001647YS02001649    1.00   0.00  0.05  0.00  0.95  0.00  0.00  0.00  0.01  0.00
  YS02006553YS02006556    1.00   0.00  0.00  0.00  1.00  0.00  0.00  0.00  0.03  0.00
  YS02006556YS02006558    1.00   0.00  0.00  0.00  1.00  0.00  0.00  0.00  0.00  0.00
  YSB6556YSB1171          1.00   0.01  0.02  0.00  0.97  0.00  0.00  0.00  0.00  0.00
  YS02001907YS02006553    1.00   0.00  0.00  0.00  0.99  0.00  0.00  0.00  0.00  0.00
  YS02006558YS02006561    1.00   0.05  0.00  0.00  0.17  0.79  0.00  0.00  0.46  0.00
  YS02001633YS02163601    1.00   0.00  0.00  0.00  1.00  0.00  0.00  0.00  0.15  0.00
  YS02001644YS02001647    1.00   0.00  0.05  0.00  0.95  0.00  0.00  0.00  0.00  0.00
  YS02001745YS02001748    1.00   0.00  0.00  0.00  0.91  0.00  0.00  0.08  0.04  0.00
  YS02001748YS02001751    1.00   0.00  0.00  0.00  0.97  0.03  0.00  0.00  0.15  0.00
  YS02001751YS02001754    1.00   0.00  0.00  0.00  0.94  0.00  0.00  0.05  0.02  0.00
  YS02001754YS02001757    1.00   0.00  0.00  0.00  1.00  0.00  0.00  0.00  0.18  0.00
  YS02001882YS02001884    1.00   0.04  0.00  0.00  0.96  0.00  0.00  0.00  0.00  0.00
  YS02001884YS02001887    1.00   0.02  0.01  0.00  0.97  0.00  0.00  0.00  0.00  0.00
  YS02001890YS02001895    1.00   0.00  0.04  0.00  0.96  0.00  0.00  0.00  0.00  0.00
  YS02001895YS02001898    1.00   0.04  0.00  0.00  0.95  0.00  0.01  0.00  0.00  0.00
  YS02001898YS02001901    1.00   0.04  0.00  0.00  0.96  0.00  0.00  0.00  0.01  0.00
  YS02001901YS02001904    1.00   0.04  0.00  0.00  0.96  0.00  0.00  0.00  0.00  0.00
  YS02001904YS02001907    1.00   0.00  0.04  0.00  0.96  0.00  0.00  0.00  0.00  0.00
  YS02001887YS02001890    1.00   0.00  0.00  0.00  0.99  0.00  0.01  0.00  0.00  0.00
  YS02001652YS02001649    1.00   0.00  0.00  0.00  1.00  0.00  0.00  0.00  0.17  0.00
  YS02001655YS02001652    1.00   0.00  0.00  0.00  0.95  0.00  0.00  0.05  0.02  0.00
  YS02001658YS02001655    1.00   0.00  0.04  0.00  0.93  0.03  0.00  0.00  0.10  0.00
  YS02001661YS02001658    1.00   0.04  0.00  0.00  0.91  0.05  0.00  0.00  0.11  0.00
  YS02001664YS02001661    1.00   0.03  0.00  0.00  0.92  0.04  0.00  0.00  0.20  0.00
  YSB1154YSB6556          1.00   0.03  0.00  0.00  0.97  0.00  0.00  0.00  0.02  0.00
  YSB1174YSB1171          1.00   0.02  0.01  0.00  0.97  0.00  0.00  0.00  0.00  0.00
  YSB1171HS02004479       1.00   0.01  0.00  0.00  0.98  0.00  0.00  0.00  0.10  0.00
  HS02004881HS02006253    1.00   0.02  0.00  0.00  0.81  0.01  0.00  0.17  0.62  0.00
  YS02001793JiankangQianchi    1.00   0.00  0.00  0.00  0.70  0.29  0.00  0.00  0.40  0.00
  YS02001757CaochengTiaoxuchi    1.00   0.00  0.07  0.00  0.93  0.00  0.00  0.00  0.00  0.00
  WSF200WS02003060        1.00   0.00  0.01  0.00  0.98  0.01  0.00  0.00  0.32  0.00
  1                       1.00   0.00  0.00  0.00  0.00  1.00  0.00  0.00  0.53  0.00
  
  
  *************************
  Conduit Surcharge Summary
  *************************
  
  ----------------------------------------------------------------------------
                                                           Hours        Hours 
                         --------- Hours Full --------   Above Full   Capacity
  Conduit                Both Ends  Upstream  Dnstream   Normal Flow   Limited
  ----------------------------------------------------------------------------
  WS02006229WS02006228        4.47      4.53      4.47      5.14         4.47
  WS02006256WS02006235        6.01      6.02      6.77      4.54         0.01
  WS02006253WS02006251        2.15      2.15      2.20      0.01         0.01
  WS02006252WS02006251        1.84      1.84      2.56      2.17         0.01
  WS02006251WS02006249        2.16      2.16      2.23      1.56         1.47
  WS02006249WS02006248        2.16      2.16      2.23      4.27         0.01
  WS02006248WS02006247        2.22      2.22      2.39      0.01         0.01
  WS02006247WS02006245        2.37      2.56      2.37      4.56         2.26
  WS02006245WS02006243        2.55      2.55      2.90      0.21         0.37
  WS02006243WS02006242        3.02      3.02      3.54      0.01         0.01
  WS02006242WS02006240        3.40      3.40      3.67      2.32         0.01
  WS02006240WS02006239        3.45      3.46      3.55      1.62         1.06
  WS02006239WS02006238        3.66      3.68      3.77      1.70         1.29
  WS02006238WS02006235        3.74      3.74      3.90      0.01         0.01
  WS02006235WS02006234        3.49      3.49      3.68      5.92         0.01
[...]
  YS02001770YS02001767        5.69      5.69      5.69      0.19         0.67
  YS02001774YS02001770        5.68      5.68      5.74      0.01         0.01
  YS02001779YS02001774        5.56      5.56      5.74      0.01         0.01
  YS02001649YS02001757        5.75      5.75      5.86      0.01         0.01
  YS02001767YS02001765        5.69      5.69      5.72      0.01         0.01
  YS02006561YS02001783        0.98      0.98      1.27      0.01         0.01
  YS02001783YS02001784        1.25      1.27      1.25      1.53         1.22
  YS02001784YS02001785        1.19      1.25      1.19      2.50         1.19
  YS02001788YS02001790        1.14      1.14      1.91      0.01         0.01
  YS02001790YS02001791        1.91      1.91      2.00      1.09         1.08
  YS02001791YS02001793        2.00      2.00      2.33      0.01         0.01
  YS02001910YS02001907        1.26      1.26      1.92      0.01         0.01
  YS02001786YS02001788        1.14      1.19      1.14      2.09         1.14
  YS02001915YS02001910        1.10      1.10      1.26      0.01         0.01
  YS02001918YS02001915        0.93      0.93      1.10      0.01         0.01
  YS02001923YS02001920        0.78      0.78      0.96      0.01         0.01
  YS02001920YS02001918        0.93      0.93      0.96      0.01         0.01
  YS02001629YS02163301        5.67      5.67      5.68      0.01         0.01
  YS02001619YS02001622        5.37      5.37      5.41      0.01         0.01
  YS02001622YS02001625        5.41      5.41      5.64      0.01         0.01
  YS02001625YS02001629        5.38      5.38      5.64      0.01         0.01
  YS02163301YS02001633        5.68      5.68      5.72      0.01         0.01
  YS02163601YS02164001        5.72      5.72      5.75      0.01         0.01
  YS02164001YS02001641        5.72      5.72      5.73      0.01         0.03
  YS02001641YS02001644        5.73      5.73      5.73      1.72         1.98
  YS02001647YS02001649        5.62      5.62      5.75      0.01         0.01
  YS02006553YS02006556        1.47      1.47      2.00      0.01         0.01
  YS02006556YS02006558        1.66      1.66      2.07      0.01         0.01
  YSB6556YSB1171              0.01      0.01      0.07      0.01         0.01
  YS02001907YS02006553        2.54      2.54      2.75      0.01         0.01
  YS02006558YS02006561        1.10      1.43      1.10      2.37         1.10
  YS02001633YS02163601        5.71      5.71      5.75      0.01         0.01
  YS02001644YS02001647        5.62      5.62      5.73      0.01         0.01
  YS02001745YS02001748        0.01      0.01      5.22      0.01         0.01
  YS02001748YS02001751        5.27      5.27      5.37      0.01         0.01
  YS02001751YS02001754        5.37      5.37      5.58      0.01         0.01
  YS02001754YS02001757        5.61      5.61      5.86      0.01         0.01
  YS02001882YS02001884        1.11      1.11      1.13      0.01         0.01
  YS02001884YS02001887        1.17      1.17      1.19      0.01         0.01
  YS02001890YS02001895        1.09      1.09      1.28      0.01         0.01
  YS02001895YS02001898        1.08      1.08      1.09      0.01         0.01
  YS02001898YS02001901        1.09      1.09      1.16      0.01         0.01
  YS02001901YS02001904        1.15      1.15      1.16      0.01         0.01
  YS02001904YS02001907        1.15      1.15      2.02      0.01         0.01
  YS02001887YS02001890        1.22      1.22      1.25      0.16         0.01
  YS02001652YS02001649        5.63      5.63      5.75      0.01         0.01
  YS02001655YS02001652        5.40      5.40      5.61      0.01         0.01
  YS02001658YS02001655        5.25      5.25      5.40      0.01         0.01
  YS02001661YS02001658        0.13      0.13      5.25      0.01         0.01
  YS02001664YS02001661        0.01      0.01      1.19      0.01         0.01
  HS02004881HS02006253        0.01      0.01      1.63      0.01         0.01
  YS02001793JiankangQianchi        2.25      2.25      4.03      0.01         0.01
  YS02001757CaochengTiaoxuchi        5.11      5.11      5.86      0.01         0.01
  
  
  ***************
  Pumping Summary
  ***************
  
  ---------------------------------------------------------------------------------------------------------
                                                  Min       Avg       Max     Total     Power    % Time Off
                        Percent   Number of      Flow      Flow      Flow    Volume     Usage    Pump Curve
  Pump                 Utilized   Start-Ups       LPS       LPS       LPS  10^6 ltr     Kw-hr    Low   High
  ---------------------------------------------------------------------------------------------------------
  CC-Pump-1               63.82           1      0.00    185.72    200.00     3.300      3.52    0.0    0.0
  CC-Pump-2               38.30           6      0.00    105.07    200.00     1.440      2.04    0.0    0.0
  JK-Pump-1               63.84           5      0.00    221.75    300.00     3.925     60.25    0.0    0.0
  JK-Pump-2               57.45           5      0.00    415.51    683.00     6.478     90.91    0.0   95.7
  XR-Pump-1               97.87           2      0.00     94.03     95.00     2.565     25.14    0.0    0.0
  XR-Pump-2               97.87           2      0.00     94.03     95.00     2.565     25.14    0.0    0.0
  XR-Pump-3               93.62           3      0.00     93.55     95.00     2.394     21.24    0.0    0.0
  XR-Pump-4               93.62           3      0.00     93.55     95.00     2.394     21.24    0.0    0.0
  
  
  ***************************
  Link Pollutant Load Summary
  ***************************
  
  ------------------------------------------------------------------------------------------
                                 COD            SS            TN            TP         NH4-N
  Link                            kg            kg            kg            kg            kg
  ------------------------------------------------------------------------------------------
  WS02003066WSF200           922.305      1718.993        23.779         2.055        12.465
  WS02006287WS02006284       319.494       608.146        10.316         1.015         5.680
  WS02006284WS02006280       319.980       608.944        10.362         1.021         5.708
  WS02006280WS02006229       319.920       608.824        10.360         1.021         5.707
  WS02006229WS02006228       919.424      1713.564        23.220         1.976        12.103
  WS02006256WS02006235       208.750       385.508         4.661         0.366         2.365
  WS02006253WS02006251        59.533       117.341         1.296         0.096         0.640
  WS02006252WS02006251       399.421       728.799         8.307         0.593         4.076
  WS02006251WS02006249       453.398       836.088         9.518         0.685         4.680
  WS02006249WS02006248       400.006       735.772         8.411         0.606         4.137
  WS02006248WS02006247       399.653       735.137         8.408         0.606         4.136
  WS02006247WS02006245       399.165       734.264         8.396         0.605         4.130
  WS02006245WS02006243       398.678       733.478         8.381         0.603         4.122
  WS02006243WS02006242       398.351       732.912         8.375         0.603         4.119
  WS02006242WS02006240       398.238       732.838         8.371         0.603         4.117
  WS02006240WS02006239       399.284       734.872         8.394         0.605         4.129
  WS02006239WS02006238       400.522       736.970         8.440         0.609         4.155
  WS02006238WS02006235       400.912       737.484         8.459         0.612         4.167
  WS02006235WS02006234       603.417      1111.616        12.960         0.964         6.447
  WS02006234WS02006232       602.831      1110.552        12.952         0.963         6.444
  WS02006232WS02006231       602.091      1109.232        12.935         0.962         6.435
  WS02006231WS02006230       601.546      1108.242        12.924         0.961         6.431
  WS02006230WS02006229       600.482      1106.430        12.893         0.959         6.414
  WS02006228WS02006109       918.323      1711.610        23.191         1.974        12.087
  WS02006116WS02004401       931.717      1735.866        24.004         2.072        12.580
  WS02006115WS02006116       932.823      1737.809        24.036         2.075        12.597
  WS02006113WS02006111       923.687      1719.686        23.901         2.066        12.539
  WS02006112WS02006115       933.953      1739.760        24.077         2.079        12.619
  WS02006111WS02006112       923.208      1718.863        23.888         2.065        12.532
  WS02006110WS02006113       924.292      1720.747        23.922         2.068        12.551
  WS02006109WS02006110       925.628      1723.078        23.977         2.073        12.582
  WS02004411WS02004412       925.192      1724.075        23.884         2.065        12.524
  WS02004401WS02004402       930.653      1734.012        23.968         2.069        12.559
  WS02004413WS02003067       922.862      1720.040        23.792         2.056        12.472
  WS02004412WS02004413       924.171      1722.284        23.850         2.062        12.505
  WS02004410WS02004411       926.016      1725.544        23.909         2.068        12.538
  WS02004409WS02004410       926.856      1727.028        23.937         2.070        12.553
  WS02004407WS02004409       927.505      1728.194        23.955         2.072        12.563
  WS02004406WS02004407       927.652      1728.503        23.953         2.071        12.561
  WS02004405WS02004406       928.907      1730.693        24.008         2.077        12.593
  WS02004404WS02004405       929.507      1731.821        24.001         2.075        12.586
  WS02004403WS02004404       928.905      1730.945        23.910         2.063        12.527
  WS02004402WS02004403       929.740      1732.405        23.939         2.066        12.544
  WS02004139WS02001211      1382.426      2295.315       112.230        13.700        69.180
  WS02004138WS02004139      1388.742      2305.865       112.718        13.759        69.479
  WS02003067WS02003066       922.479      1719.311        23.785         2.055        12.469
  WS02001213WS02003059      1415.547      2347.349       115.667        14.133        71.339
  WS02001212WS02001213      1424.694      2362.503       116.408        14.224        71.796
  WS02001211WS02001212      1426.776      2365.906       116.587        14.246        71.907
  WS02003072WS02003073      2438.818      4226.734       149.491        17.449        90.098
  WS02003069WS02003072      2443.221      4233.937       149.849        17.493        90.318
  WS02003060WS02003069      2445.745      4238.294       149.991        17.509        90.403
  WS02003059WS02003060      1412.418      2342.054       115.443        14.107        71.203
  HS02004901HS02004770        13.094        25.474         0.248         0.019         0.116
  HS02004876HS02004881        45.515        90.349         0.999         0.073         0.491
  HS02004870HS02004876        34.382        68.105         0.798         0.060         0.395
  HS02004842HS02004848         6.456        12.343         0.134         0.009         0.062
  HS02004837HS02004842        11.055        19.634         0.603         0.068         0.356
  HS02004830HS02004837        70.297       122.725         4.643         0.552         2.827
  HS02004824HS02004830        71.069       123.981         4.715         0.561         2.871
  HS02004817HS02004824        97.163       176.406         5.254         0.596         3.135
  HS02004770HS02004777        49.662        97.713         1.021         0.069         0.472
  HS02004799HS02004480       162.326       310.844         4.263         0.379         2.209
  HS02004792HS02004799       147.275       280.127         4.028         0.367         2.105
  HS02004788HS02004792        82.817       157.689         2.666         0.255         1.440
  HS02004785HS02004788        51.121       100.049         1.172         0.089         0.567
  HS02004777HS02004785        50.445        98.943         1.112         0.081         0.530
  HS02004480HS02004478       204.827       395.200         4.972         0.430         2.544
  HS02004479HS02004480        46.129        90.116         1.037         0.091         0.538
  HS02004862HS02004870        25.799        50.340         0.628         0.050         0.314
  HS02004848HS02004852        10.251        19.885         0.210         0.014         0.097
  HS02004856HS02004862        17.524        34.749         0.350         0.023         0.164
  HS02004852HS02004856        10.255        19.889         0.210         0.014         0.097
  HS02004802HS02004478       115.339       214.047         5.398         0.592         3.169
  HS02004478WS02006287       319.706       608.513        10.333         1.017         5.690
  HS02004817HS02004807        95.857       174.310         5.130         0.581         3.057
  HS02004807HS02004802       115.595       214.448         5.430         0.596         3.189
  YS02001759YS02001757       361.100       662.925         7.215         0.500         3.524
  YS02001762YS02001759       181.366       333.272         3.826         0.269         1.890
  YS02001765YS02001762       181.906       334.855         3.855         0.271         1.907
  YS02001770YS02001767       182.744       338.251         3.686         0.245         1.791
  YS02001774YS02001770       254.437       497.106         4.868         0.324         2.352
  YS02001779YS02001774       253.203       494.590         4.948         0.338         2.410
  YS02001649YS02001757       335.103       603.936         6.706         0.465         3.217
  YS02001767YS02001765       182.941       337.337         3.887         0.274         1.924
  YS02006561YS02001783      1018.313      1887.217        21.356         1.594        10.628
  YS02001783YS02001784      1018.181      1887.002        21.352         1.594        10.626
  YS02001784YS02001785      1025.491      1898.708        22.064         1.683        11.072
  YS02001788YS02001790      1026.038      1899.577        22.136         1.692        11.117
  YS02001790YS02001791      1027.024      1901.171        22.235         1.705        11.179
  YS02001791YS02001793      1026.904      1900.963        22.229         1.704        11.176
  YS02001910YS02001907       391.127       721.461         9.379         0.717         4.804
  YS02001786YS02001788      1025.658      1898.976        22.091         1.687        11.089
  YS02001915YS02001910       391.198       721.578         9.331         0.710         4.772
  YS02001918YS02001915       189.984       335.668         5.202         0.471         2.797
  YS02001923YS02001920       166.964       297.517         3.206         0.226         1.558
  YS02001926YS02001923       164.825       293.823         3.109         0.215         1.501
  YS02001929YS02001926       164.186       292.735         3.065         0.210         1.474
  YS02001920YS02001918       187.483       330.597         5.125         0.465         2.756
  YS02001629YS02163301        96.163       170.043         2.030         0.131         0.947
  YS02001619YS02001622       175.877       321.140         3.602         0.236         1.684
  YS02001622YS02001625       174.678       319.230         3.573         0.234         1.671
  YS02001625YS02001629        97.244       171.811         2.054         0.133         0.958
  YS02163301YS02001633        96.520       170.906         2.032         0.132         0.949
  YS02163601YS02164001       405.721       733.142         7.899         0.562         3.784
  YS02164001YS02001641       405.173       732.207         7.878         0.560         3.772
  YS02001641YS02001644       405.209       732.186         7.873         0.560         3.769
  YS02001647YS02001649       431.969       792.314         8.516         0.593         4.059
  YS02006553YS02006556       684.445      1257.761        14.731         1.128         7.415
  YS02006556YS02006558       684.336      1257.538        14.701         1.124         7.396
  YSB6556YSB1171              26.524        51.971         0.537         0.045         0.272
  YS02001907YS02006553       684.606      1258.089        14.740         1.129         7.421
  YS02006558YS02006561      1018.308      1887.206        21.355         1.594        10.627
  YS02001633YS02163601       406.452       734.286         7.880         0.558         3.768
  YS02001644YS02001647       437.977       803.137         8.616         0.601         4.106
  YS02001745YS02001748       249.241       466.177         5.428         0.372         2.689
  YS02001748YS02001751       247.806       463.349         5.503         0.385         2.745
  YS02001751YS02001754       246.785       461.663         5.484         0.384         2.736
  YS02001754YS02001757       247.537       462.783         5.648         0.407         2.843
  YS02001882YS02001884         3.179         5.507         0.064         0.005         0.032
  YS02001884YS02001887         6.791        12.023         0.134         0.010         0.067
  YS02001890YS02001895       451.018       846.554         8.302         0.624         4.050
  YS02001895YS02001898       450.872       846.368         8.296         0.624         4.046
  YS02001898YS02001901       450.661       846.009         8.292         0.623         4.044
  YS02001901YS02001904       450.514       845.799         8.298         0.625         4.049
  YS02001904YS02001907       450.724       846.113         8.351         0.632         4.083
  YS02001887YS02001890       468.270       880.770         8.646         0.653         4.223
  YS02001652YS02001649       200.665       373.187         4.037         0.291         1.894
  YS02001655YS02001652       201.209       374.072         4.052         0.292         1.901
  YS02001658YS02001655       200.760       373.366         3.966         0.280         1.845
  YS02001661YS02001658       203.202       377.694         4.016         0.284         1.868
  YS02001664YS02001661       219.076       403.814         4.375         0.308         2.032
  YSB1154YSB6556              26.086        51.273         0.486         0.038         0.239
  YSB1174YSB1171              18.023        35.565         0.362         0.029         0.181
  YSB1171HS02004479           46.095        90.062         1.040         0.092         0.541
  HS02004881HS02006253        51.574       102.804         1.101         0.079         0.538
  YS02001793JiankangQianchi      1027.231      1901.503        22.242         1.706        11.183
  YS02001757CaochengTiaoxuchi       647.767      1168.423        13.638         0.968         6.691
  WSF200WS02003060           922.152      1718.658        23.786         2.056        12.470
  1                         2443.874      4233.914       150.212        17.543        90.558
  CC-Pump-1                  278.044       507.259         5.785         0.413         2.839
  CC-Pump-2                  121.391       221.561         2.522         0.180         1.237
  JK-Pump-1                  272.280       506.812         5.942         0.460         2.998
  JK-Pump-2                  530.497      1001.209        10.874         0.810         5.393
  XR-Pump-1                  368.279       610.264        30.192         3.691        18.627
  XR-Pump-2                  368.279       610.264        30.192         3.691        18.627
  XR-Pump-3                  327.926       545.700        26.318         3.207        16.206
  XR-Pump-4                  327.926       545.700        26.318         3.207        16.206
  

  Analysis begun on:  Fri Jul 16 12:03:34 2021
  Analysis ended on:  Fri Jul 16 12:03:37 2021
  Total elapsed time: 00:00:03