
  EPA STORM WATER MANAGEMENT MODEL - VERSION 5.1 (Build 5.3.0.dev0)
  --------------------------------------------------------------

  WARNING 04: minimum elevation drop used for Conduit WS02004404WS02004405
  WARNING 03: negative offset ignored for Link YS02001904YS02001907
  
  *********************************************************
  NOTE: The summary statistics displayed in this report are
  based on results found at every computational time step,  
  not just on results from each reporting time step.
  *********************************************************
  
  ****************
  Analysis Options
  ****************
  Flow Units ............... LPS
  Process Models:
    Rainfall/Runoff ........ YES
    RDII ................... NO
    Snowmelt ............... NO
    Groundwater ............ NO
    Flow Routing ........... YES
    Ponding Allowed ........ NO
    Water Quality .......... YES
  Infiltration Method ...... HORTON
  Flow Routing Method ...... DYNWAVE
  Surcharge Method ......... EXTRAN
  Starting Date ............ 08/28/2015 08:00:00
  Ending Date .............. 08/28/2015 15:50:00
  Antecedent Dry Days ...... 8.0
  Report Time Step ......... 00:01:00
  Wet Time Step ............ 00:01:00
  Dry Time Step ............ 00:01:00
  Routing Time Step ........ 5.00 sec
  Variable Time Step ....... YES
  Maximum Trials ........... 8
  Number of Threads ........ 4
  Head Tolerance ........... 0.001500 m
  
  
  **************************        Volume         Depth
  Runoff Quantity Continuity     hectare-m            mm
  **************************     ---------       -------
  Total Precipitation ......        10.887        23.836
  Evaporation Loss .........         0.000         0.000
  Infiltration Loss ........         1.411         3.089
  Surface Runoff ...........         8.292        18.155
  Final Storage ............         1.186         2.596
  Continuity Error (%) .....        -0.016
  
  
  **************************           COD            SS            TN            TP         NH4-N
  Runoff Quality Continuity             kg            kg            kg            kg            kg
  **************************    ----------    ----------    ----------    ----------    ----------
  Initial Buildup ..........     41378.656     70582.865      1804.177       168.684      1032.807
  Surface Buildup ..........        41.425        91.431         2.568         0.227         1.442
  Wet Deposition ...........         0.000         0.000         0.000         0.000         0.000
  Sweeping Removal .........         0.000         0.000         0.000         0.000         0.000
  Infiltration Loss ........       164.554       320.127         3.263         0.236         1.574
  BMP Removal ..............         0.000         0.000         0.000         0.000         0.000
  Surface Runoff ...........      9366.500     18283.806       183.722        12.955        88.133
  Remaining Buildup ........     31885.964     52064.522      1619.692       155.715       944.511
  Continuity Error (%) .....         0.007         0.008         0.004         0.003         0.003
  
  
  **************************        Volume        Volume
  Flow Routing Continuity        hectare-m      10^6 ltr
  **************************     ---------     ---------
  Dry Weather Inflow .......         0.616         6.165
  Wet Weather Inflow .......         8.290        82.899
  Groundwater Inflow .......         0.000         0.000
  RDII Inflow ..............         0.000         0.000
  External Inflow ..........         0.102         1.024
  External Outflow .........         2.348        23.482
  Flooding Loss ............         6.172        61.720
  Evaporation Loss .........         0.000         0.000
  Exfiltration Loss ........         0.000         0.000
  Initial Stored Volume ....         0.076         0.761
  Final Stored Volume ......         0.676         6.764
  Continuity Error (%) .....        -1.230
  
  
  **************************           COD            SS            TN            TP         NH4-N
  Quality Routing Continuity            kg            kg            kg            kg            kg
  **************************    ----------    ----------    ----------    ----------    ----------
  Dry Weather Inflow .......      1541.201      2465.922       147.955        18.494        92.472
  Wet Weather Inflow .......      9365.059     18281.247       183.690        12.953        88.117
  Groundwater Inflow .......         0.000         0.000         0.000         0.000         0.000
  RDII Inflow ..............         0.000         0.000         0.000         0.000         0.000
  External Inflow ..........       183.418       293.469        17.608         2.201        11.005
  External Outflow .........      2912.991      5356.267       135.825        14.913        79.263
  Flooding Loss ............      7462.864     14428.036       185.521        15.913        96.550
  Exfiltration Loss ........         0.000         0.000         0.000         0.000         0.000
  Mass Reacted .............         0.000         0.000         0.000         0.000         0.000
  Initial Stored Mass ......         0.000         0.000         0.000         0.000         0.000
  Final Stored Mass ........       599.477      1068.110        24.387         2.517        13.910
  Continuity Error (%) .....         1.031         0.895         1.008         0.908         0.976
  
  
  *************************
  Highest Continuity Errors
  *************************
  Node YS02001884 (11.49%)
  Node HS02004842 (7.73%)
  Node JK-storage (-7.62%)
  Node HS02004817 (1.58%)
  Node YSB1171 (1.38%)
  
  
  ***************************
  Time-Step Critical Elements
  ***************************
  Link WS02006252WS02006251 (60.56%)
  Link WS02006280WS02006229 (12.56%)
  Link WS02004404WS02004405 (5.20%)
  Link YS02001745YS02001748 (2.98%)
  Link WS02006238WS02006235 (2.91%)
  
  
  ********************************
  Highest Flow Instability Indexes
  ********************************
  Link YS02163601YS02164001 (44)
  Link YS02001629YS02163301 (43)
  Link YS02163301YS02001633 (43)
  Link YS02001619YS02001622 (43)
  Link YS02164001YS02001641 (40)
  
  
  *************************
  Routing Time Step Summary
  *************************
  Minimum Time Step           :     0.34 sec
  Average Time Step           :     1.17 sec
  Maximum Time Step           :     5.00 sec
  Percent in Steady State     :    -0.00
  Average Iterations per Step :     4.37
  Percent Not Converging      :    17.81
  
  
  ***************************
  Subcatchment Runoff Summary
  ***************************
  
  ------------------------------------------------------------------------------------------------------------------------------
                            Total      Total      Total      Total     Imperv       Perv      Total       Total     Peak  Runoff
                           Precip      Runon       Evap      Infil     Runoff     Runoff     Runoff      Runoff   Runoff   Coeff
  Subcatchment                 mm         mm         mm         mm         mm         mm         mm    10^6 ltr      LPS
  ------------------------------------------------------------------------------------------------------------------------------
  sub0                      23.84       0.00       0.00       0.77      22.12       0.90      23.02        0.02     5.06   0.966
  sub1                      23.84       0.00       0.00       1.33      21.12       1.29      22.41        0.15    33.98   0.940
  sub2                      23.84       0.00       0.00       5.60      14.93       3.22      18.15        0.17    32.49   0.761
  sub3                      23.84       0.00       0.00       5.94      14.89       2.88      17.77        0.40    70.76   0.745
  sub4                      23.84       0.00       0.00       1.46      20.95       1.16      22.11        0.46    81.55   0.928
  sub5                      23.84       0.00       0.00       0.82      22.07       0.85      22.92        0.26    59.56   0.962
  sub7                      23.84       0.00       0.00       1.03      21.63       1.11      22.74        0.08    19.22   0.954
  sub8                      23.84       0.00       0.00       1.05      21.62       1.10      22.72        0.15    35.26   0.953
  sub9                      23.84       0.00       0.00       1.05      21.62       1.10      22.71        0.11    26.33   0.953
  sub10                     23.84       0.00       0.00       0.94      21.84       0.97      22.81        0.25    58.74   0.957
  sub11                     23.84       0.00       0.00       0.92      21.86       0.99      22.85        0.27    65.28   0.959
  sub12                     23.84       0.00       0.00       1.50      20.69       1.60      22.29        0.19    51.10   0.935
  sub14                     23.84       0.00       0.00       1.05      21.61       1.09      22.71        0.22    51.81   0.953
  sub15                     23.84       0.00       0.00       4.05      16.62       3.10      19.72        0.34    74.01   0.827
  sub16                     23.84       0.00       0.00       4.23      15.93       3.63      19.56        0.20    48.29   0.821
  sub17                     23.84       0.00       0.00       4.13      16.17       3.50      19.67        0.17    39.49   0.825
  sub22                     23.84       0.00       0.00       6.08      13.55       4.17      17.72        1.12   235.47   0.743
  sub23                     23.84       0.00       0.00       5.01      14.97       3.81      18.78        0.90   197.86   0.788
  sub60                     23.84       0.00       0.00       2.13      18.82       0.73      19.55        5.93   667.30   0.820
  sub61                     23.84       0.00       0.00       3.01      18.52       1.04      19.56        6.03   717.95   0.821
  sub62                     23.84       0.00       0.00       1.25      20.31       0.65      20.96        6.44   751.14   0.880
  sub63                     23.84       0.00       0.00       5.57      16.04       1.34      17.38        5.26   638.31   0.729
  sub64                     23.84       0.00       0.00       2.78      18.11       0.79      18.90        5.75   644.78   0.793
  sub65                     23.84       0.00       0.00       2.36      18.46       0.74      19.20        5.90   658.64   0.806
  sub66                     23.84       0.00       0.00       5.92      15.37       0.99      16.36        5.02   574.80   0.686
  sub67                     23.84       0.00       0.00       1.18      20.92       0.73      21.65        6.68   814.16   0.908
  sub68                     23.84       0.00       0.00       2.35      19.35       0.99      20.34        6.25   750.28   0.853
  sub69                     23.84       0.00       0.00       2.36      19.61       1.21      20.83        4.87   655.18   0.874
  sub70                     23.84      21.26       0.00       9.95      28.09       5.22      33.30        7.62   861.91   0.738
  sub71                     23.84       0.00       0.00       1.29      20.01       0.62      20.63        4.87   557.88   0.866
  sub72                     23.84       0.00       0.00       1.26      17.48       0.41      17.89        3.64   352.81   0.750
  1                         23.84      32.43       0.00       1.37      34.56      12.51      47.07       11.06  1042.57   0.837
  2                         23.84       0.00       0.00       3.02       5.81       5.77      11.58        4.63   438.27   0.486
  
  
  ****************************
  Subcatchment Washoff Summary
  ****************************
  
  ------------------------------------------------------------------------------------------
                                 COD            SS            TN            TP         NH4-N
  Subcatchment                    kg            kg            kg            kg            kg
  ------------------------------------------------------------------------------------------
  sub0                         5.447        10.648         0.101         0.009         0.050
  sub1                        23.688        48.042         0.463         0.033         0.225
  sub2                        16.966        34.031         0.358         0.025         0.167
  sub3                        41.902        83.507         0.867         0.061         0.406
  sub4                        55.504       114.752         1.120         0.071         0.542
  sub5                        53.600       106.723         1.016         0.079         0.498
  sub7                        11.854        24.343         0.233         0.016         0.114
  sub8                        17.650        37.231         0.360         0.022         0.174
  sub9                        15.191        31.538         0.304         0.020         0.147
  sub10                       44.044        88.979         0.851         0.062         0.416
  sub11                       42.563        86.978         0.834         0.059         0.406
  sub12                       37.050        74.157         0.712         0.055         0.347
  sub14                       32.601        66.963         0.643         0.044         0.313
  sub15                       47.434        94.407         0.941         0.071         0.448
  sub16                       30.857        61.246         0.608         0.047         0.290
  sub17                       28.315        55.641         0.547         0.044         0.262
  sub22                      161.087       316.749         3.138         0.242         1.488
  sub23                       88.506       179.789         1.886         0.128         0.879
  sub60                      597.605      1177.766        11.858         0.760         5.721
  sub61                      735.660      1436.196        13.939         0.989         6.759
  sub62                      737.985      1463.009        14.530         0.959         7.028
  sub63                      558.710      1076.727        11.142         0.807         5.242
  sub64                      776.597      1477.973        14.527         1.087         6.999
  sub65                      790.465      1509.997        14.865         1.095         7.170
  sub66                      450.962       868.123         9.087         0.615         4.293
  sub67                     1073.899      2091.719        20.029         1.513         9.761
  sub68                      789.681      1552.112        15.327         1.072         7.390
  sub69                      691.072      1362.692        13.304         0.964         6.425
  sub70                     1288.654      2534.730        26.762         1.929        12.763
  sub71                      488.493       980.368         9.974         0.604         4.804
  sub72                      441.504       833.180         8.283         0.587         4.008
  1                         1052.298      2081.048        22.042         1.588        10.427
  2                          118.381       219.864         3.138         0.193         1.360
  ------------------------------------------------------------------------------------------
  System                   11346.226     22181.229       223.788        15.848       107.320
  
  
  ******************
  Node Depth Summary
  ******************
  
  ---------------------------------------------------------------------------------
                                 Average  Maximum  Maximum  Time of Max    Reported
                                   Depth    Depth      HGL   Occurrence   Max Depth
  Node                 Type       Meters   Meters   Meters  days hr:min      Meters
  ---------------------------------------------------------------------------------
  WS02001211           JUNCTION     0.78     0.86     5.69     0  01:43        0.86
  WS02001212           JUNCTION     0.50     0.59     5.65     0  01:42        0.59
  WS02001213           JUNCTION     0.74     0.87     5.63     0  01:42        0.87
  WS02003069           JUNCTION     0.55     0.73     5.32     0  01:43        0.73
  WS02003072           JUNCTION     0.61     0.78     5.15     0  01:41        0.78
  WS02003073           JUNCTION     0.37     0.49     4.55     0  01:42        0.49
  WS02003060           JUNCTION     0.49     0.65     5.58     0  01:42        0.65
  WS02003066           JUNCTION     0.27     0.40     5.95     0  01:36        0.40
  WS02003059           JUNCTION     0.79     0.92     5.61     0  01:43        0.92
  WS02003067           JUNCTION     0.63     0.84     6.16     0  01:35        0.84
  WS02004401           JUNCTION     0.79     1.48     7.48     0  01:32        1.29
  WS02004402           JUNCTION     0.82     1.43     7.39     0  01:32        1.26
  WS02004403           JUNCTION     0.83     1.39     7.32     0  01:32        1.23
  WS02004404           JUNCTION     0.90     1.41     7.26     0  01:32        1.27
  WS02004406           JUNCTION     0.89     1.26     7.09     0  01:32        1.18
  WS02004409           JUNCTION     0.60     1.04     6.81     0  01:35        1.03
  WS02004410           JUNCTION     0.61     1.01     6.73     0  01:35        0.99
  WS02004411           JUNCTION     0.62     0.97     6.65     0  01:35        0.97
  WS02004412           JUNCTION     0.63     0.94     6.58     0  01:35        0.93
  WS02004413           JUNCTION     0.77     1.05     6.52     0  01:35        1.04
  WS02004405           JUNCTION     0.89     1.37     7.22     0  01:32        1.24
  WS02006109           JUNCTION     0.92     1.91     8.52     0  01:33        1.87
  WS02006110           JUNCTION     0.88     1.79     8.37     0  01:32        1.63
  WS02006111           JUNCTION     0.32     1.29     7.99     0  01:32        1.00
  WS02006112           JUNCTION     0.99     1.91     7.79     0  01:32        1.65
  WS02006113           JUNCTION     0.44     1.43     8.32     0  01:32        1.07
  WS02006115           JUNCTION     0.70     1.54     7.68     0  01:32        1.29
  WS02006116           JUNCTION     0.78     1.55     7.59     0  01:32        1.32
  WS02006230           JUNCTION     0.97     2.13     8.88     0  01:33        2.11
  WS02006231           JUNCTION     0.71     1.74     8.86     0  01:33        1.72
  WS02006232           JUNCTION     0.86     1.81     8.85     0  01:33        1.79
  WS02006234           JUNCTION     0.81     1.68     8.84     0  01:34        1.66
  WS02006235           JUNCTION     0.85     1.67     8.84     0  01:34        1.65
  WS02006238           JUNCTION     0.87     1.69     8.83     0  01:34        1.66
  WS02006240           JUNCTION     0.78     1.50     8.80     0  01:34        1.48
  WS02006242           JUNCTION     0.83     1.50     8.77     0  01:34        1.48
  WS02006243           JUNCTION     0.71     1.33     8.75     0  01:34        1.31
  WS02006245           JUNCTION     0.68     1.24     8.73     0  01:33        1.22
  WS02006247           JUNCTION     0.69     1.21     8.71     0  01:34        1.20
  WS02006248           JUNCTION     0.63     1.10     8.69     0  01:32        1.10
  WS02006249           JUNCTION     0.65     1.09     8.69     0  01:32        1.09
  WS02006239           JUNCTION     0.83     1.60     8.81     0  01:34        1.58
  WS02006251           JUNCTION     0.63     1.48     9.15     0  01:32        1.19
  WS02006252           JUNCTION     0.40     0.93     9.17     0  01:32        0.74
  WS02006253           JUNCTION     0.66     1.95     9.59     0  01:32        1.22
  WS02006256           JUNCTION     1.90     2.35     9.28     0  00:00        2.35
  WS02004138           JUNCTION     0.19     0.20     7.45     0  00:00        0.19
  WS02004139           JUNCTION     0.73     0.80     5.71     0  01:42        0.80
  WS02004407           JUNCTION     0.27     0.42     6.73     0  01:35        0.42
  WS02006228           JUNCTION     0.96     2.11     8.76     0  01:33        2.08
  WS02006229           JUNCTION     0.95     2.20     8.90     0  01:33        2.17
  WS02006280           JUNCTION     0.08     0.51     8.78     0  01:33        0.50
  WS02006284           JUNCTION     0.39     0.72     9.12     0  01:34        0.72
  WS02006287           JUNCTION     0.12     0.46     9.42     0  01:34        0.46
  WSF200               JUNCTION     0.27     0.45     5.69     0  01:36        0.45
  HS02004901           JUNCTION     0.14     0.43    10.25     0  01:33        0.43
  HS02004881           JUNCTION     0.01     0.09     9.12     0  01:32        0.06
  HS02004876           JUNCTION     0.05     0.19     9.22     0  01:32        0.19
  HS02004870           JUNCTION     0.02     0.11     9.40     0  01:35        0.11
  HS02004862           JUNCTION     0.03     0.13     9.51     0  01:35        0.13
  HS02004856           JUNCTION     0.08     0.17     9.59     0  01:35        0.17
  HS02004852           JUNCTION     0.02     0.10     9.61     0  01:35        0.10
  HS02004848           JUNCTION     0.02     0.08     9.68     0  01:36        0.08
  HS02004842           JUNCTION     0.34     0.41     9.68     0  01:35        0.41
  HS02004837           JUNCTION     0.03     0.10     9.68     0  01:35        0.10
  HS02004830           JUNCTION     0.05     0.15     9.62     0  01:35        0.15
  HS02004824           JUNCTION     0.03     0.20     9.61     0  01:35        0.20
  HS02004817           JUNCTION     0.46     0.77     9.62     0  01:34        0.77
  HS02004807           JUNCTION     0.14     0.44     9.61     0  01:35        0.44
  HS02004802           JUNCTION     0.18     0.47     9.60     0  01:34        0.47
  HS02004799           JUNCTION     0.14     0.55     9.76     0  01:33        0.55
  HS02004792           JUNCTION     0.05     0.27     9.79     0  01:33        0.27
  HS02004788           JUNCTION     0.04     0.19    10.09     0  01:34        0.19
  HS02004785           JUNCTION     0.06     0.29    10.19     0  01:33        0.29
  HS02004777           JUNCTION     0.16     0.44    10.24     0  01:33        0.44
  HS02004770           JUNCTION     0.13     0.42    10.25     0  01:33        0.42
  HS02004480           JUNCTION     0.10     0.46     9.70     0  01:33        0.46
  HS02004479           JUNCTION     0.14     0.49     9.70     0  01:34        0.49
  HS02004478           JUNCTION     0.08     0.35     9.58     0  01:34        0.35
  YS02001745           JUNCTION     0.82     1.24     8.76     0  01:29        1.04
  YS02001748           JUNCTION     1.23     1.85     8.93     0  01:28        1.46
  YS02001751           JUNCTION     1.41     1.71     8.59     0  01:29        1.63
  YS02001754           JUNCTION     1.67     1.89     8.50     0  01:29        1.88
  YS02001762           JUNCTION     1.87     2.07     8.47     0  01:29        2.07
  YS02001765           JUNCTION     1.82     2.02     8.47     0  01:29        2.01
  YS02001767           JUNCTION     1.78     1.97     8.46     0  01:29        1.97
  YS02001770           JUNCTION     1.77     1.95     8.44     0  02:07        1.95
  YS02001774           JUNCTION     1.84     2.00     8.42     0  02:04        1.99
  YS02001779           JUNCTION     1.58     1.68     8.37     0  01:27        1.68
  YS02001882           JUNCTION     0.72     1.72     8.44     0  01:32        1.64
  YS02001884           JUNCTION     0.82     1.80     8.42     0  01:32        1.74
  YS02001759           JUNCTION     1.90     2.11     8.47     0  03:01        2.11
  YS02001887           JUNCTION     0.90     1.85     8.38     0  01:32        1.82
  YS02001890           JUNCTION     0.92     1.81     8.32     0  01:32        1.81
  YS02001898           JUNCTION     0.69     1.57     8.31     0  01:33        1.56
  YS02001901           JUNCTION     0.81     1.68     8.29     0  01:33        1.67
  YS02001904           JUNCTION     0.78     1.64     8.27     0  01:33        1.63
  YS02001907           JUNCTION     1.12     1.96     8.25     0  01:33        1.96
  YS02001910           JUNCTION     0.91     1.97     8.48     0  01:33        1.92
  YS02001915           JUNCTION     0.71     1.91     8.63     0  01:33        1.83
  YS02001918           JUNCTION     0.45     1.81     8.88     0  01:33        1.70
  YS02001619           JUNCTION     1.36     1.61     8.54     0  01:27        1.50
  YS02001629           JUNCTION     1.72     1.85     8.40     0  01:27        1.85
  YS02001641           JUNCTION     1.81     1.96     8.40     0  01:29        1.95
  YS02001644           JUNCTION     1.81     1.92     8.35     0  01:29        1.92
  YS02001652           JUNCTION     1.68     2.16     8.76     0  01:35        1.91
  YS02001655           JUNCTION     1.44     2.20     9.05     0  01:35        1.75
  YS02001920           JUNCTION     0.55     2.10     9.11     0  01:33        1.77
  YS02001923           JUNCTION     0.37     2.01     9.27     0  01:33        1.51
  YS02001926           JUNCTION     0.41     1.90     9.35     0  01:33        1.33
  YS02001929           JUNCTION     0.26     1.78     9.47     0  01:33        1.10
  YS02001658           JUNCTION     1.16     2.12     9.26     0  01:35        1.54
  YS02001661           JUNCTION     0.92     2.46     9.86     0  01:35        1.27
  YS02001664           JUNCTION     0.42     0.69     8.62     0  01:30        0.69
  YS02001622           JUNCTION     1.38     1.62     8.52     0  01:27        1.51
  YS02001633           JUNCTION     1.81     1.98     8.43     0  01:29        1.97
  YS02001649           JUNCTION     1.87     2.05     8.44     0  01:29        2.05
  YS02001757           JUNCTION     2.00     2.20     8.47     0  02:55        2.20
  YS02001895           JUNCTION     0.68     1.57     8.31     0  01:34        1.56
  YS02001625           JUNCTION     1.67     1.78     8.38     0  01:27        1.78
  YS02163301           JUNCTION     1.75     1.90     8.42     0  06:51        1.89
  YS02163601           JUNCTION     1.86     2.03     8.43     0  01:29        2.02
  YS02164001           JUNCTION     1.79     1.97     8.42     0  01:29        1.95
  YS02001647           JUNCTION     1.65     1.81     8.42     0  04:17        1.80
  YSB1154              JUNCTION     0.28     0.65     9.70     0  01:34        0.65
  YSB6556              JUNCTION     0.17     0.53     9.70     0  01:33        0.53
  YSB1174              JUNCTION     0.23     0.59     9.70     0  01:33        0.59
  YSB1171              JUNCTION     0.43     0.80     9.70     0  01:34        0.80
  YS02006553           JUNCTION     1.12     1.97     8.26     0  01:53        1.97
  YS02006561           JUNCTION     0.43     1.30     7.96     0  01:32        1.09
  YS02006556           JUNCTION     1.08     1.94     8.25     0  01:44        1.94
  YS02006558           JUNCTION     1.12     2.00     8.26     0  01:32        1.98
  YS02001783           JUNCTION     0.68     1.69     7.83     0  01:32        1.48
  YS02001784           JUNCTION     0.69     1.65     7.72     0  01:32        1.42
  YS02001786           JUNCTION     0.61     1.60     7.63     0  01:32        1.27
  YS02001788           JUNCTION     0.54     1.83     7.81     0  01:32        1.13
  YS02001790           JUNCTION     0.67     1.96     7.60     0  01:31        1.29
  YS02001791           JUNCTION     0.64     2.69     8.16     0  05:05        1.28
  YS02001793           JUNCTION     0.91     2.59     7.42     0  05:04        1.80
  WSC                  OUTFALL      0.37     0.49     1.16     0  01:43        0.49
  JK-storage           STORAGE      3.42     5.80     6.60     0  01:32        5.80
  CC-storage           STORAGE      1.24     1.46     8.46     0  03:23        1.46
  XR-storage           STORAGE      7.29     7.72     5.72     0  01:47        7.72
  
  
  *******************
  Node Inflow Summary
  *******************
  
  -------------------------------------------------------------------------------------------------
                                  Maximum  Maximum                  Lateral       Total        Flow
                                  Lateral    Total  Time of Max      Inflow      Inflow     Balance
                                   Inflow   Inflow   Occurrence      Volume      Volume       Error
  Node                 Type           LPS      LPS  days hr:min    10^6 ltr    10^6 ltr     Percent
  -------------------------------------------------------------------------------------------------
  WS02001211           JUNCTION      7.35   390.46     0  03:27       0.207        10.4       0.399
  WS02001212           JUNCTION      0.00   393.55     0  03:26           0        10.4       0.244
  WS02001213           JUNCTION      0.00   396.48     0  03:25           0        10.4       0.291
  WS02003069           JUNCTION      0.32  1378.22     0  01:43     0.00902        23.6       0.173
  WS02003072           JUNCTION      0.00  1378.45     0  01:43           0        23.5       0.200
  WS02003073           JUNCTION      1.82  1380.19     0  01:44      0.0514        23.5       0.235
  WS02003060           JUNCTION     16.53  1378.39     0  01:42       0.466        23.6       0.161
  WS02003066           JUNCTION      0.00   998.28     0  01:35           0        12.9       0.045
  WS02003059           JUNCTION      0.00   400.43     0  03:25           0        10.3       0.409
  WS02003067           JUNCTION      0.00   994.68     0  01:35           0        12.9       0.086
  WS02004401           JUNCTION      0.00  1016.04     0  01:34           0        13.2       0.193
  WS02004402           JUNCTION      0.00  1015.96     0  01:34           0        13.1       0.180
  WS02004403           JUNCTION      0.00  1016.69     0  01:34           0        13.1       0.159
  WS02004404           JUNCTION      0.16  1017.69     0  01:34     0.00457        13.1       0.117
  WS02004406           JUNCTION      0.00  1018.83     0  01:34           0        13.1       0.283
  WS02004409           JUNCTION      0.00  1016.00     0  01:34           0          13       0.168
  WS02004410           JUNCTION      0.00  1006.61     0  01:35           0          13       0.185
  WS02004411           JUNCTION      0.00   991.82     0  01:36           0          13       0.185
  WS02004412           JUNCTION      0.00   992.37     0  01:36           0        12.9       0.194
  WS02004413           JUNCTION      0.00   993.93     0  01:35           0        12.9       0.278
  WS02004405           JUNCTION      0.04  1018.35     0  01:34     0.00107        13.1       0.175
  WS02006109           JUNCTION      1.23   977.86     0  01:34      0.0347        13.1       0.141
  WS02006110           JUNCTION      0.00   977.86     0  01:34           0        13.1       0.171
  WS02006111           JUNCTION      0.00   977.90     0  01:34           0        13.1       0.043
  WS02006112           JUNCTION     39.49  1016.51     0  01:34       0.169        13.2       0.232
  WS02006113           JUNCTION      0.00   977.89     0  01:34           0        13.1       0.095
  WS02006115           JUNCTION      0.00  1016.03     0  01:34           0        13.2       0.193
  WS02006116           JUNCTION      0.00  1015.85     0  01:34           0        13.2       0.160
  WS02006230           JUNCTION     10.28   533.42     0  06:22        0.29        8.71       0.201
  WS02006231           JUNCTION      0.00   523.35     0  06:22           0        8.41       0.162
  WS02006232           JUNCTION      0.00   523.44     0  06:22           0         8.4       0.220
  WS02006234           JUNCTION      0.00   523.09     0  06:22           0        8.39       0.139
  WS02006235           JUNCTION      0.00   523.69     0  07:31           0        8.51       0.130
  WS02006238           JUNCTION      0.00   418.32     0  06:30           0        4.93       0.165
  WS02006240           JUNCTION      0.00   416.84     0  06:30           0        4.93       0.340
  WS02006242           JUNCTION      0.00   416.59     0  06:30           0        4.94       0.399
  WS02006243           JUNCTION      0.00   416.24     0  06:30           0        4.94       0.274
  WS02006245           JUNCTION      0.00   416.02     0  06:30           0        4.95       0.286
  WS02006247           JUNCTION      0.00   416.05     0  06:30           0        4.96       0.217
  WS02006248           JUNCTION      0.00   417.26     0  06:30           0        5.01       0.150
  WS02006249           JUNCTION      0.00   523.55     0  03:01           0        6.14       0.221
  WS02006239           JUNCTION      0.00   417.64     0  06:30           0        4.93       0.223
  WS02006251           JUNCTION      0.08   523.22     0  03:01     0.00217        6.18       0.178
  WS02006252           JUNCTION      0.00   400.00     0  03:00           0        5.22       0.011
  WS02006253           JUNCTION      5.06   276.69     0  01:31      0.0186       0.961       0.537
  WS02006256           JUNCTION      0.00   983.00     0  00:00           0        14.4      -0.008
  WS02004138           JUNCTION      0.00   380.00     0  00:00           0        10.3       0.062
  WS02004139           JUNCTION      0.32   396.51     0  00:00     0.00905        10.3       0.451
  WS02004407           JUNCTION      0.00  1019.67     0  01:34           0          13       0.074
  WS02006228           JUNCTION      0.00   976.59     0  01:34           0        13.1       0.129
  WS02006229           JUNCTION      0.00  1054.81     0  01:32           0        13.2       0.113
  WS02006280           JUNCTION      0.00   937.56     0  01:34           0        4.56       0.014
  WS02006284           JUNCTION      0.10   934.65     0  01:35      0.0027        4.56       0.019
  WS02006287           JUNCTION      0.00   934.65     0  01:35           0        4.56       0.019
  WSF200               JUNCTION      0.00   999.24     0  01:36           0        12.9       0.047
  HS02004901           JUNCTION     48.29    48.29     0  01:31       0.205       0.205       0.867
  HS02004881           JUNCTION     19.22   196.20     0  01:33      0.0766       0.897       0.080
  HS02004876           JUNCTION     33.98   176.89     0  01:34       0.149       0.821       0.068
  HS02004870           JUNCTION     35.26   143.34     0  01:35       0.145       0.672       0.017
  HS02004862           JUNCTION     32.69   109.55     0  01:35       0.175       0.527       0.033
  HS02004856           JUNCTION     26.33    76.92     0  01:35       0.109       0.354       0.407
  HS02004852           JUNCTION      0.00    51.63     0  01:36           0       0.245       0.025
  HS02004848           JUNCTION     70.76    70.76     0  01:38         0.4         0.4       0.012
  HS02004842           JUNCTION      0.00    21.86     0  01:49           0       0.168       8.372
  HS02004837           JUNCTION     65.09    82.02     0  01:35       0.431       0.586       0.138
  HS02004830           JUNCTION      0.15    82.12     0  01:35     0.00423       0.576       0.215
  HS02004824           JUNCTION     81.60   164.06     0  01:39       0.463        1.04       0.052
  HS02004817           JUNCTION      0.60   166.62     0  01:39      0.0169        1.05       1.606
  HS02004807           JUNCTION     65.28   225.51     0  01:36       0.265         1.3       0.342
  HS02004802           JUNCTION      0.00   226.45     0  01:37           0         1.3       0.298
  HS02004799           JUNCTION     51.81   605.47     0  01:33       0.216        2.82       0.117
  HS02004792           JUNCTION    235.75   554.35     0  01:33        1.13        2.61       0.015
  HS02004788           JUNCTION     75.68   319.93     0  01:33       0.386        1.48       0.026
  HS02004785           JUNCTION      0.15   244.47     0  01:33     0.00423         1.1       0.047
  HS02004777           JUNCTION      0.03   244.66     0  01:32    0.000846         1.1       0.479
  HS02004770           JUNCTION    197.86   245.55     0  01:32       0.896         1.1       0.279
  HS02004480           JUNCTION      0.00   713.05     0  01:33           0        3.27       0.024
  HS02004479           JUNCTION      0.00   107.71     0  01:33           0       0.464       0.161
  HS02004478           JUNCTION      0.00   934.58     0  01:35           0        4.56       0.007
  YS02001745           JUNCTION    667.30   667.30     0  03:01        5.93        5.93       0.192
  YS02001748           JUNCTION      0.04   667.55     0  03:01     0.00127        5.92       0.378
  YS02001751           JUNCTION      0.01   667.86     0  03:01     0.00031         5.9       0.412
  YS02001754           JUNCTION      0.26   668.74     0  03:01     0.00733        5.88       0.412
  YS02001762           JUNCTION      0.00   370.23     0  01:35           0        3.11       0.684
  YS02001765           JUNCTION      0.00   369.96     0  01:35           0        3.11       0.789
  YS02001767           JUNCTION      0.54   369.89     0  01:35      0.0151        3.13       1.151
  YS02001770           JUNCTION    751.30  1085.91     0  03:01        6.45        8.14       0.386
  YS02001774           JUNCTION      0.00   851.17     0  02:33           0        6.35       0.393
  YS02001779           JUNCTION      0.01   851.17     0  02:45    0.000141        6.32       0.246
  YS02001882           JUNCTION      0.00    35.86     0  01:30           0      0.0232      12.632
  YS02001884           JUNCTION      0.00    62.42     0  01:29           0        0.06      12.979
  YS02001759           JUNCTION    717.99   898.67     0  01:41        6.03        7.42       0.309
  YS02001887           JUNCTION    814.61   815.54     0  01:58        6.69        6.72       0.133
  YS02001890           JUNCTION      0.00   815.85     0  01:57           0        6.67       0.150
  YS02001898           JUNCTION      0.00   598.44     0  01:32           0        5.38       0.053
  YS02001901           JUNCTION      0.00   603.23     0  01:32           0        5.38       0.150
  YS02001904           JUNCTION      0.00   604.49     0  01:32           0        5.38       0.128
  YS02001907           JUNCTION      0.00  1427.98     0  03:01           0          14       0.183
  YS02001910           JUNCTION      0.00   911.29     0  03:01           0         8.6       0.145
  YS02001915           JUNCTION    557.90   911.10     0  03:01        4.87        8.65       0.082
  YS02001918           JUNCTION      0.00   432.44     0  01:32           0        3.81       0.067
  YS02001619           JUNCTION    574.80   574.80     0  03:01        5.02        5.02       0.239
  YS02001629           JUNCTION      0.00   279.76     0  01:26           0        2.09       1.361
  YS02001641           JUNCTION      0.00   456.22     0  01:28           0        6.14       0.345
  YS02001644           JUNCTION    644.82  1924.37     0  03:01        5.75        19.2       0.136
  YS02001652           JUNCTION      0.00   639.60     0  03:01           0        5.22       0.435
  YS02001655           JUNCTION      0.15   639.39     0  03:01     0.00434        5.24       0.487
  YS02001920           JUNCTION      2.87   402.24     0  01:33      0.0809        3.79       0.094
  YS02001923           JUNCTION      0.04   401.24     0  01:33     0.00106        3.69       0.045
  YS02001926           JUNCTION      0.05   463.69     0  01:33     0.00147        3.66       0.086
  YS02001929           JUNCTION    352.81   352.81     0  03:01        3.64        3.65       0.004
  YS02001658           JUNCTION      0.00   638.98     0  03:01           0        5.26       0.462
  YS02001661           JUNCTION      0.00   800.06     0  01:41           0        5.68      -0.084
  YS02001664           JUNCTION    638.31   638.31     0  03:01        5.26        5.69       0.111
  YS02001622           JUNCTION      0.00   574.86     0  03:01           0        5.01       0.630
  YS02001633           JUNCTION    658.84   658.84     0  03:01        5.91        7.08       0.452
  YS02001649           JUNCTION      0.00  1362.73     0  03:01           0        10.8       0.346
  YS02001757           JUNCTION      0.00  2182.20     0  01:41           0        13.5       0.679
  YS02001895           JUNCTION      0.00   594.51     0  01:32           0        5.39       0.123
  YS02001625           JUNCTION      0.00   801.47     0  03:01           0        5.86       0.683
  YS02163301           JUNCTION      0.00   279.14     0  01:26           0        2.09       1.155
  YS02163601           JUNCTION      0.11   454.30     0  01:28      0.0031        6.14       0.490
  YS02164001           JUNCTION      0.00   454.53     0  01:28           0        6.13       0.325
  YS02001647           JUNCTION      0.00   846.70     0  03:21           0         8.5       0.333
  YSB1154              JUNCTION     59.56    59.56     0  01:33        0.26        0.26       0.556
  YSB6556              JUNCTION      0.00    59.44     0  01:33           0       0.261       0.489
  YSB1174              JUNCTION     51.10    51.10     0  01:30       0.195       0.195       0.658
  YSB1171              JUNCTION      0.00   108.28     0  01:32           0       0.462       1.394
  YS02006553           JUNCTION      0.00   730.71     0  04:01           0        7.58       0.212
  YS02006561           JUNCTION      0.00  1060.99     0  01:32           0        13.8       0.007
  YS02006556           JUNCTION      0.00   730.83     0  04:02           0        7.59       0.153
  YS02006558           JUNCTION    751.16  1059.69     0  01:32        6.28        13.8       0.038
  YS02001783           JUNCTION      0.00  1023.67     0  01:31           0        13.8       0.021
  YS02001784           JUNCTION      1.06  1024.80     0  01:31      0.0299        13.8       0.030
  YS02001786           JUNCTION      0.06  1024.64     0  01:31     0.00159        13.8       0.030
  YS02001788           JUNCTION      0.07  1003.97     0  01:31       0.002        13.8       0.019
  YS02001790           JUNCTION      0.15   984.12     0  01:50     0.00437        13.8       0.017
  YS02001791           JUNCTION      0.00   984.09     0  01:58           0        13.8       0.007
  YS02001793           JUNCTION      0.00   984.35     0  01:52           0        13.8      -0.001
  WSC                  OUTFALL       0.00  1380.77     0  01:43           0        23.5       0.000
  JK-storage           STORAGE       0.00  1020.29     0  01:30           0          14      -7.084
  CC-storage           STORAGE       0.00  2182.61     0  01:41           0        8.97       0.718
  XR-storage           STORAGE    1680.85  1680.85     0  03:01        21.3        21.9       0.002
  
  
  **********************
  Node Surcharge Summary
  **********************
  
  Surcharging occurs when water rises above the top of the highest conduit.
  ---------------------------------------------------------------------
                                               Max. Height   Min. Depth
                                   Hours       Above Crown    Below Rim
  Node                 Type      Surcharged         Meters       Meters
  ---------------------------------------------------------------------
  WS02004401           JUNCTION        1.79          0.484        1.176
  WS02004402           JUNCTION        1.81          0.434        1.306
  WS02004403           JUNCTION        1.81          0.386        1.644
  WS02004404           JUNCTION        1.96          0.408        2.372
  WS02004406           JUNCTION        1.86          0.256        2.194
  WS02004409           JUNCTION        0.13          0.043        2.317
  WS02004410           JUNCTION        0.01          0.008        2.532
  WS02004413           JUNCTION        0.89          0.048        2.152
  WS02004405           JUNCTION        1.87          0.365        2.435
  WS02006109           JUNCTION        5.03          1.086        0.734
  WS02006110           JUNCTION        3.23          0.878        0.972
  WS02006111           JUNCTION        0.65          0.476        1.394
  WS02006112           JUNCTION        3.59          0.911        0.769
  WS02006113           JUNCTION        0.72          0.628        1.302
  WS02006115           JUNCTION        1.72          0.533        1.717
  WS02006116           JUNCTION        1.73          0.486        1.804
  WS02006230           JUNCTION        2.97          1.052        0.518
  WS02006231           JUNCTION        3.39          1.030        0.500
  WS02006232           JUNCTION        5.13          1.108        0.372
  WS02006234           JUNCTION        4.28          0.962        0.278
  WS02006235           JUNCTION        4.87          0.963        0.327
  WS02006238           JUNCTION        4.96          0.969        0.461
  WS02006240           JUNCTION        4.26          0.793        0.597
  WS02006242           JUNCTION        4.38          0.770        0.050
  WS02006243           JUNCTION        3.87          0.617        0.153
  WS02006245           JUNCTION        3.72          0.532        0.318
  WS02006247           JUNCTION        3.73          0.504        0.256
  WS02006248           JUNCTION        3.53          0.380        0.000
  WS02006249           JUNCTION        3.58          0.390        0.000
  WS02006239           JUNCTION        4.51          0.864        0.426
  WS02006251           JUNCTION        2.57          0.449        0.731
  WS02006252           JUNCTION        3.82          0.529        0.571
  WS02006253           JUNCTION        2.72          0.907        1.573
  WS02006256           JUNCTION        6.89          2.050        0.000
  WS02006228           JUNCTION        4.99          1.278        0.922
  WS02006229           JUNCTION        0.01          0.022        1.048
  HS02004817           JUNCTION        0.46          0.068        1.672
  YS02001745           JUNCTION        0.83          0.240        1.110
  YS02001748           JUNCTION        6.35          0.773        0.417
  YS02001751           JUNCTION        6.36          0.714        0.486
  YS02001754           JUNCTION        6.38          0.844        0.306
  YS02001762           JUNCTION        6.40          1.074        0.076
  YS02001765           JUNCTION        6.40          1.024        0.076
  YS02001767           JUNCTION        6.39          0.973        0.057
  YS02001770           JUNCTION        6.39          0.920        0.000
  YS02001774           JUNCTION        6.40          0.997        0.053
  YS02001779           JUNCTION        6.37          0.680        0.000
  YS02001882           JUNCTION        2.54          0.721        0.109
  YS02001884           JUNCTION        2.56          0.743        0.127
  YS02001759           JUNCTION        6.41          1.109        0.101
  YS02001887           JUNCTION        2.62          0.795        0.155
  YS02001890           JUNCTION        2.64          0.760        0.000
  YS02001898           JUNCTION        2.51          0.541        0.199
  YS02001901           JUNCTION        2.59          0.683        0.187
  YS02001904           JUNCTION        2.57          0.645        0.205
  YS02001907           JUNCTION        3.14          0.950        0.000
  YS02001910           JUNCTION        2.67          0.970        0.130
  YS02001915           JUNCTION        2.54          0.914        0.086
  YS02001918           JUNCTION        2.40          0.810        0.000
  YS02001619           JUNCTION        6.37          0.610        0.000
  YS02001629           JUNCTION        6.37          0.470        0.000
  YS02001641           JUNCTION        6.40          0.962        0.138
  YS02001644           JUNCTION        6.40          0.920        0.000
  YS02001652           JUNCTION        6.38          1.130        0.000
  YS02001655           JUNCTION        6.37          1.200        0.000
  YS02001920           JUNCTION        2.42          1.103        0.037
  YS02001923           JUNCTION        0.01          0.800        0.020
  YS02001926           JUNCTION        0.01          0.900        0.000
  YS02001929           JUNCTION        0.01          0.780        0.000
  YS02001658           JUNCTION        6.35          1.116        0.184
  YS02001661           JUNCTION        1.50          1.390        0.000
  YS02001622           JUNCTION        6.37          0.620        0.000
  YS02001633           JUNCTION        6.40          0.960        0.100
  YS02001649           JUNCTION        6.40          1.050        0.000
  YS02001757           JUNCTION        6.42          1.205        0.005
  YS02001895           JUNCTION        2.53          0.567        0.183
  YS02001625           JUNCTION        6.38          0.780        0.000
  YS02163301           JUNCTION        6.39          0.903        0.127
  YS02163601           JUNCTION        6.40          1.035        0.045
  YS02164001           JUNCTION        6.40          0.965        0.135
  YS02001647           JUNCTION        6.38          0.806        0.094
  YS02006553           JUNCTION        3.18          0.973        0.217
  YS02006561           JUNCTION        2.42          0.499        0.651
  YS02006556           JUNCTION        2.84          0.902        0.448
  YS02006558           JUNCTION        2.81          0.896        0.504
  YS02001783           JUNCTION        2.63          0.886        0.714
  YS02001784           JUNCTION        2.60          0.854        0.636
  YS02001786           JUNCTION        2.52          0.801        0.629
  YS02001788           JUNCTION        2.47          1.030        0.450
  YS02001790           JUNCTION        3.29          1.157        0.000
  YS02001791           JUNCTION        3.39          1.895        0.025
  YS02001793           JUNCTION        3.65          1.590        1.010
  
  
  *********************
  Node Flooding Summary
  *********************
  
  Flooding refers to all water that overflows a node, whether it ponds or not.
  --------------------------------------------------------------------------
                                                             Total   Maximum
                                 Maximum   Time of Max       Flood    Ponded
                        Hours       Rate    Occurrence      Volume     Depth
  Node                 Flooded       LPS   days hr:min    10^6 ltr    Meters
  --------------------------------------------------------------------------
  WS02006248              0.44    151.85      0  01:38       0.139     0.000
  WS02006249              2.64    400.96      0  03:02       1.218     0.000
  WS02006256              4.93    978.40      0  00:00      10.698     0.000
  YS02001770              1.06    234.54      0  03:01       0.336     0.000
  YS02001779              4.37    851.17      0  02:45       6.305     0.000
  YS02001890              1.75    298.72      0  01:56       1.275     0.000
  YS02001907              2.27   1197.50      0  03:01       6.358     0.000
  YS02001918              0.01     89.36      0  01:33       0.001     0.000
  YS02001619              0.01    104.17      0  01:27       0.000     0.000
  YS02001629              0.01    240.31      0  01:27       0.002     0.000
  YS02001644              5.37   1924.29      0  03:01      18.053     0.000
  YS02001652              0.01      5.78      0  01:35       0.000     0.000
  YS02001655              0.01     12.84      0  01:35       0.000     0.000
  YS02001926              0.01     22.18      0  01:33       0.000     0.000
  YS02001929              0.01    244.70      0  01:33       0.001     0.000
  YS02001661              0.01    114.41      0  01:35       0.000     0.000
  YS02001622              0.01     85.79      0  01:27       0.000     0.000
  YS02001649              1.41    515.97      0  03:01       1.328     0.000
  YS02001625              3.02    801.42      0  03:01       4.633     0.000
  YS02001790              0.01    163.07      0  05:06       0.000     0.000
  JK-storage              0.67    695.53      0  01:32       0.635     0.000
  XR-storage              6.03   1300.61      0  03:01      10.739     0.000
  
  
  **********************
  Storage Volume Summary
  **********************
  
  --------------------------------------------------------------------------------------------------
                         Average     Avg  Evap Exfil       Maximum     Max    Time of Max    Maximum
                          Volume    Pcnt  Pcnt  Pcnt        Volume    Pcnt     Occurrence    Outflow
  Storage Unit           1000 m3    Full  Loss  Loss       1000 m3    Full    days hr:min        LPS
  --------------------------------------------------------------------------------------------------
  JK-storage               0.172      59     0     0         0.291     100       0  01:32     983.00
  CC-storage               3.466      22     0     0         4.081      26       0  03:23     400.00
  XR-storage               0.875      94     0     0         0.926     100       0  01:47     380.00
  
  
  ***********************
  Outfall Loading Summary
  ***********************
  
  ---------------------------------------------------------------------------------------------------------------------------------
                         Flow       Avg       Max       Total         Total         Total         Total         Total         Total
                         Freq      Flow      Flow      Volume           COD            SS            TN            TP         NH4-N
  Outfall Node           Pcnt       LPS       LPS    10^6 ltr            kg            kg            kg            kg            kg
  ---------------------------------------------------------------------------------------------------------------------------------
  WSC                   99.98    864.88   1380.77      23.482      2913.130      5356.517       135.831        14.914        79.267
  ---------------------------------------------------------------------------------------------------------------------------------
  System                99.98    864.88   1380.77      23.482      2913.130      5356.517       135.831        14.914        79.267
  
  
  ********************
  Link Flow Summary
  ********************
  
  -----------------------------------------------------------------------------
                                 Maximum  Time of Max   Maximum    Max/    Max/
                                  |Flow|   Occurrence   |Veloc|    Full    Full
  Link                 Type          LPS  days hr:min     m/sec    Flow   Depth
  -----------------------------------------------------------------------------
  WS02003066WSF200     CONDUIT    999.24     0  01:36      3.05    0.17    0.33
  WS02006287WS02006284 CONDUIT    934.56     0  01:35      2.63    0.43    0.46
  WS02006284WS02006280 CONDUIT    937.56     0  01:34      2.86    0.39    0.44
  WS02006280WS02006229 CONDUIT    963.19     0  01:34      4.53    0.21    0.75
  WS02006229WS02006228 CONDUIT    976.59     0  01:34      1.94    3.23    1.00
  WS02006256WS02006235 CONDUIT    288.60     0  00:00      4.23    3.05    1.00
  WS02006253WS02006251 CONDUIT    273.97     0  01:32      0.83    0.82    1.00
  WS02006252WS02006251 CONDUIT    404.28     0  06:22      3.22    1.48    1.00
  WS02006251WS02006249 CONDUIT    523.55     0  03:01      1.36    1.51    1.00
  WS02006249WS02006248 CONDUIT    417.26     0  06:30      1.19    2.29    1.00
  WS02006248WS02006247 CONDUIT    416.05     0  06:30      1.16    0.91    1.00
  WS02006247WS02006245 CONDUIT    416.02     0  06:30      1.14    3.30    1.00
  WS02006245WS02006243 CONDUIT    416.24     0  06:30      1.17    1.23    1.00
  WS02006243WS02006242 CONDUIT    416.59     0  06:30      1.08    0.89    1.00
  WS02006242WS02006240 CONDUIT    416.84     0  06:30      1.08    1.66    1.00
  WS02006240WS02006239 CONDUIT    417.64     0  06:30      1.09    1.31    1.00
  WS02006239WS02006238 CONDUIT    418.32     0  06:30      1.09    1.34    1.00
  WS02006238WS02006235 CONDUIT    419.68     0  06:30      1.46    0.94    1.00
  WS02006235WS02006234 CONDUIT    523.09     0  06:22      1.36    5.52    1.00
  WS02006234WS02006232 CONDUIT    523.44     0  06:22      1.39    1.06    1.00
  WS02006232WS02006231 CONDUIT    523.35     0  06:22      1.36    1.10    1.00
  WS02006231WS02006230 CONDUIT    523.14     0  06:22      1.36    7.94    1.00
  WS02006230WS02006229 CONDUIT    535.29     0  07:30      1.39   11.91    1.00
  WS02006228WS02006109 CONDUIT    976.63     0  01:34      1.94    4.27    1.00
  WS02006116WS02004401 CONDUIT   1016.04     0  01:34      1.29    1.40    1.00
  WS02006115WS02006116 CONDUIT   1015.85     0  01:34      1.29    1.30    1.00
  WS02006113WS02006111 CONDUIT    977.90     0  01:34      2.65    1.17    1.00
  WS02006112WS02006115 CONDUIT   1016.03     0  01:34      1.29    0.60    1.00
  WS02006111WS02006112 CONDUIT    977.90     0  01:34      1.95    0.46    1.00
  WS02006110WS02006113 CONDUIT    977.89     0  01:34      1.95    0.89    1.00
  WS02006109WS02006110 CONDUIT    977.86     0  01:34      1.95    1.88    1.00
  WS02004411WS02004412 CONDUIT    992.37     0  01:36      1.29    1.41    0.96
  WS02004401WS02004402 CONDUIT   1015.96     0  01:34      1.29    1.22    1.00
  WS02004413WS02003067 CONDUIT    994.68     0  01:35      1.62    0.43    0.73
  WS02004412WS02004413 CONDUIT    993.93     0  01:35      1.28    0.67    0.97
  WS02004410WS02004411 CONDUIT    991.82     0  01:36      1.27    1.35    0.99
  WS02004409WS02004410 CONDUIT   1006.61     0  01:35      1.29    1.30    1.00
  WS02004407WS02004409 CONDUIT   1016.00     0  01:34      1.87    0.36    0.71
  WS02004406WS02004407 CONDUIT   1019.67     0  01:34      1.72    0.46    0.71
  WS02004405WS02004406 CONDUIT   1018.83     0  01:34      1.30    2.01    1.00
  WS02004404WS02004405 CONDUIT   1018.32     0  01:34      1.30    9.98    1.00
  WS02004403WS02004404 CONDUIT   1017.53     0  01:34      1.30    0.74    1.00
  WS02004402WS02004403 CONDUIT   1016.69     0  01:34      1.29    1.46    1.00
  WS02004139WS02001211 CONDUIT    383.11     0  03:27      0.90    0.48    0.65
  WS02004138WS02004139 CONDUIT    396.19     0  00:00      3.65    0.08    0.47
  WS02003067WS02003066 CONDUIT    998.28     0  01:35      1.71    0.32    0.51
  WS02001213WS02003059 CONDUIT    400.43     0  03:25      0.88    0.66    0.88
  WS02001212WS02001213 CONDUIT    396.48     0  03:25      1.32    0.61    0.57
  WS02001211WS02001212 CONDUIT    393.55     0  03:26      0.78    0.30    0.72
  WS02003072WS02003073 CONDUIT   1378.37     0  01:44      1.99    2.98    0.59
  WS02003069WS02003072 CONDUIT   1378.45     0  01:43      1.84    0.66    0.63
  WS02003060WS02003069 CONDUIT   1377.90     0  01:43      2.04    0.54    0.58
  WS02003059WS02003060 CONDUIT    405.33     0  03:24      0.95    0.26    0.79
  HS02004901HS02004770 CONDUIT     47.75     0  01:32      0.11    0.18    0.61
  HS02004876HS02004881 CONDUIT    177.42     0  01:33      1.41    1.89    0.20
  HS02004870HS02004876 CONDUIT    143.30     0  01:35      0.95    0.10    0.22
  HS02004842HS02004848 CONDUIT     21.86     0  01:49      0.09    0.01    0.35
  HS02004837HS02004842 CONDUIT     22.38     0  01:49      0.42    0.01    0.37
  HS02004830HS02004837 CONDUIT     81.97     0  01:35      0.70    0.08    0.18
  HS02004824HS02004830 CONDUIT     82.88     0  01:37      0.63    0.11    0.25
  HS02004817HS02004824 CONDUIT    166.02     0  01:39      0.37    0.07    0.64
  HS02004770HS02004777 CONDUIT    244.63     0  01:32      0.57    0.45    0.62
  HS02004799HS02004480 CONDUIT    605.42     0  01:33      1.21    0.76    0.71
  HS02004792HS02004799 CONDUIT    554.25     0  01:33      1.36    0.34    0.58
  HS02004788HS02004792 CONDUIT    319.85     0  01:34      1.40    0.21    0.33
  HS02004785HS02004788 CONDUIT    244.45     0  01:33      1.02    1.84    0.34
  HS02004777HS02004785 CONDUIT    244.32     0  01:33      0.67    0.30    0.52
  HS02004480HS02004478 CONDUIT    712.97     0  01:33      1.74    3.00    0.59
  HS02004479HS02004480 CONDUIT    107.66     0  01:33      0.45    0.10    0.68
  HS02004862HS02004870 CONDUIT    109.56     0  01:36      0.90    0.12    0.17
  HS02004848HS02004852 CONDUIT     51.63     0  01:36      0.58    0.06    0.13
  HS02004856HS02004862 CONDUIT     76.86     0  01:35      0.67    0.08    0.16
  HS02004852HS02004856 CONDUIT     51.73     0  01:36      0.39    0.06    0.19
  HS02004802HS02004478 CONDUIT    227.65     0  01:38      0.57    0.20    0.58
  HS02004478WS02006287 CONDUIT    934.65     0  01:35      2.37    0.26    0.44
  HS02004817HS02004807 CONDUIT    166.70     0  01:39      0.30    0.10    0.81
  HS02004807HS02004802 CONDUIT    226.45     0  01:37      0.51    0.43    0.64
  YS02001759YS02001757 CONDUIT    898.89     0  01:41      1.14    0.64    1.00
  YS02001762YS02001759 CONDUIT    370.56     0  01:35      0.47    0.43    1.00
  YS02001765YS02001762 CONDUIT    370.23     0  01:35      0.47    0.35    1.00
  YS02001770YS02001767 CONDUIT    369.35     0  01:35      0.50    1.46    1.00
  YS02001774YS02001770 CONDUIT    851.17     0  02:33      1.08    0.54    1.00
  YS02001779YS02001774 CONDUIT    851.17     0  02:45      1.08    0.43    1.00
  YS02001649YS02001757 CONDUIT    891.01     0  01:40      1.13    0.54    1.00
  YS02001767YS02001765 CONDUIT    369.96     0  01:35      0.48    0.47    1.00
  YS02006561YS02001783 CONDUIT   1023.67     0  01:31      2.27    0.53    1.00
  YS02001783YS02001784 CONDUIT   1023.74     0  01:31      2.04    1.41    1.00
  YS02001784YS02001785 CONDUIT   1024.58     0  01:31      2.07    2.38    1.00
  YS02001788YS02001790 CONDUIT    983.97     0  01:50      2.45    0.73    1.00
  YS02001790YS02001791 CONDUIT    984.09     0  01:58      2.98    1.07    1.00
  YS02001791YS02001793 CONDUIT    984.35     0  01:52      5.81    0.42    1.00
  YS02001910YS02001907 CONDUIT    911.59     0  03:01      1.16    0.51    1.00
  YS02001786YS02001788 CONDUIT   1003.90     0  01:31      2.31    1.93    1.00
  YS02001915YS02001910 CONDUIT    911.29     0  03:01      1.16    0.45    1.00
  YS02001918YS02001915 CONDUIT    432.44     0  01:32      0.57    0.24    1.00
  YS02001923YS02001920 CONDUIT    401.21     0  01:33      0.92    0.18    1.00
  YS02001926YS02001923 CONDUIT    463.64     0  01:33      1.00    0.66    1.00
  YS02001929YS02001926 CONDUIT    352.42     0  03:01      1.07    0.17    1.00
  YS02001920YS02001918 CONDUIT    401.55     0  01:34      0.86    0.39    1.00
  YS02001629YS02163301 CONDUIT    279.76     0  01:26      0.36    0.34    1.00
  YS02001619YS02001622 CONDUIT    574.86     0  03:01      0.86    0.85    1.00
  YS02001622YS02001625 CONDUIT    575.14     0  03:01      0.73    0.31    1.00
  YS02001625YS02001629 CONDUIT    260.10     0  01:26      0.40    0.12    1.00
  YS02163301YS02001633 CONDUIT    279.14     0  01:26      0.36    0.26    1.00
  YS02163601YS02164001 CONDUIT    454.53     0  01:28      0.58    0.40    1.00
  YS02164001YS02001641 CONDUIT    456.22     0  01:28      0.58    0.62    1.00
  YS02001641YS02001644 CONDUIT    457.69     0  01:28      0.58    1.48    1.00
  YS02001647YS02001649 CONDUIT    846.70     0  03:21      1.08    0.45    1.00
  YS02006553YS02006556 CONDUIT    730.83     0  04:02      0.93    0.63    1.00
  YS02006556YS02006558 CONDUIT    731.49     0  04:02      0.93    0.58    1.00
  YSB6556YSB1171       CONDUIT     59.53     0  01:34      0.17    0.06    0.88
  YS02001907YS02006553 CONDUIT    730.71     0  04:01      0.81    0.86    1.00
  YS02006558YS02006561 CONDUIT   1060.99     0  01:32      3.76    2.35    1.00
  YS02001633YS02163601 CONDUIT    454.19     0  01:28      0.58    0.48    1.00
  YS02001644YS02001647 CONDUIT    846.70     0  03:21      1.08    0.50    1.00
  YS02001745YS02001748 CONDUIT    667.50     0  03:01      1.86    0.26    1.00
  YS02001748YS02001751 CONDUIT    667.85     0  03:01      1.39    0.34    1.00
  YS02001751YS02001754 CONDUIT    668.48     0  03:01      1.15    0.32    1.00
  YS02001754YS02001757 CONDUIT    669.18     0  03:01      0.85    0.27    1.00
  YS02001882YS02001884 CONDUIT     35.86     0  01:30      0.22    0.04    1.00
  YS02001884YS02001887 CONDUIT     62.42     0  01:29      0.16    0.08    1.00
  YS02001890YS02001895 CONDUIT    594.51     0  01:32      0.76    0.28    1.00
  YS02001895YS02001898 CONDUIT    598.44     0  01:32      0.76    1.04    1.00
  YS02001898YS02001901 CONDUIT    603.23     0  01:32      0.77    0.39    1.00
  YS02001901YS02001904 CONDUIT    604.49     0  01:32      0.77    0.94    1.00
  YS02001904YS02001907 CONDUIT    605.14     0  01:32      0.77    0.21    1.00
  YS02001887YS02001890 CONDUIT    815.85     0  01:57      1.04    1.40    1.00
  YS02001652YS02001649 CONDUIT    639.70     0  03:01      0.84    0.32    1.00
  YS02001655YS02001652 CONDUIT    639.60     0  03:01      1.25    0.31    1.00
  YS02001658YS02001655 CONDUIT    639.24     0  03:01      1.61    0.27    1.00
  YS02001661YS02001658 CONDUIT    638.98     0  03:01      1.99    0.25    1.00
  YS02001664YS02001661 CONDUIT    800.06     0  01:41      1.90    0.25    0.85
  YSB1154YSB6556       CONDUIT     59.44     0  01:33      0.17    0.11    0.84
  YSB1174YSB1171       CONDUIT     50.32     0  01:30      0.14    0.08    0.92
  YSB1171HS02004479    CONDUIT    107.71     0  01:33      0.54    0.07    0.78
  HS02004881HS02006253 CONDUIT    270.49     0  01:32      2.77    0.05    0.56
  YS02001793JiankangQianchi CONDUIT   1020.29     0  01:30     16.66    0.08    1.00
  YS02001757CaochengTiaoxuchi CONDUIT   2182.61     0  01:41      3.80    0.96    1.00
  WSF200WS02003060     CONDUIT   1003.32     0  01:36      2.06    0.22    0.46
  1                    CONDUIT   1380.77     0  01:43      3.62    0.48    0.49
  CC-Pump-1            PUMP       200.00     0  02:10              1.00
  CC-Pump-2            PUMP       200.00     0  03:00              1.00
  JK-Pump-1            PUMP       300.00     0  00:00              1.00
  JK-Pump-2            PUMP       683.00     0  00:00              1.00
  XR-Pump-1            PUMP        95.00     0  00:00              1.00
  XR-Pump-2            PUMP        95.00     0  00:00              1.00
  XR-Pump-3            PUMP        95.00     0  00:00              1.00
  XR-Pump-4            PUMP        95.00     0  00:00              1.00
  
  
  ***************************
  Flow Classification Summary
  ***************************
  
  -------------------------------------------------------------------------------------
                      Adjusted    ---------- Fraction of Time in Flow Class ---------- 
                       /Actual         Up    Down  Sub   Sup   Up    Down  Norm  Inlet 
  Conduit               Length    Dry  Dry   Dry   Crit  Crit  Crit  Crit  Ltd   Ctrl  
  -------------------------------------------------------------------------------------
  WS02003066WSF200        1.00   0.02  0.04  0.00  0.00  0.94  0.00  0.00  0.35  0.00
  WS02006287WS02006284    1.00   0.03  0.01  0.00  0.65  0.31  0.00  0.00  0.61  0.00
  WS02006284WS02006280    1.00   0.03  0.00  0.00  0.00  0.00  0.00  0.96  0.00  0.00
  WS02006280WS02006229    1.00   0.03  0.00  0.00  0.05  0.09  0.00  0.82  0.06  0.00
  WS02006229WS02006228    1.00   0.00  0.00  0.00  1.00  0.00  0.00  0.00  0.00  0.00
  WS02006256WS02006235    1.00   0.00  0.00  0.00  1.00  0.00  0.00  0.00  0.00  0.00
  WS02006253WS02006251    1.00   0.01  0.02  0.00  0.96  0.00  0.01  0.00  0.00  0.00
  WS02006252WS02006251    1.00   0.07  0.00  0.00  0.26  0.00  0.67  0.00  0.00  0.00
  WS02006251WS02006249    1.00   0.00  0.00  0.00  1.00  0.00  0.00  0.00  0.13  0.00
  WS02006249WS02006248    1.00   0.00  0.01  0.00  0.95  0.00  0.04  0.00  0.00  0.00
  WS02006248WS02006247    1.00   0.01  0.00  0.00  0.98  0.00  0.00  0.01  0.01  0.00
  WS02006247WS02006245    1.00   0.01  0.00  0.00  0.97  0.00  0.00  0.03  0.00  0.00
  WS02006245WS02006243    1.00   0.00  0.00  0.00  0.96  0.00  0.00  0.04  0.01  0.00
  WS02006243WS02006242    1.00   0.00  0.00  0.00  0.99  0.00  0.00  0.00  0.15  0.00
  WS02006242WS02006240    1.00   0.00  0.00  0.00  0.99  0.00  0.01  0.00  0.00  0.00
  WS02006240WS02006239    1.00   0.00  0.00  0.00  0.96  0.00  0.00  0.04  0.01  0.00
  WS02006239WS02006238    1.00   0.00  0.00  0.00  1.00  0.00  0.00  0.00  0.11  0.00
  WS02006238WS02006235    1.00   0.00  0.00  0.00  1.00  0.00  0.00  0.00  0.00  0.00
  WS02006235WS02006234    1.00   0.00  0.00  0.00  0.97  0.00  0.03  0.00  0.00  0.00
  WS02006234WS02006232    1.00   0.00  0.00  0.00  1.00  0.00  0.00  0.00  0.06  0.00
  WS02006232WS02006231    1.00   0.00  0.00  0.00  1.00  0.00  0.00  0.00  0.00  0.00
  WS02006231WS02006230    1.00   0.00  0.00  0.00  0.83  0.00  0.17  0.00  0.00  0.00
  WS02006230WS02006229    1.00   0.00  0.00  0.00  1.00  0.00  0.00  0.00  0.01  0.00
  WS02006228WS02006109    1.00   0.00  0.00  0.00  1.00  0.00  0.00  0.00  0.00  0.00
  WS02006116WS02004401    1.00   0.01  0.00  0.00  0.99  0.00  0.00  0.00  0.01  0.00
  WS02006115WS02006116    1.00   0.01  0.00  0.00  0.97  0.00  0.00  0.02  0.01  0.00
  WS02006113WS02006111    1.00   0.01  0.00  0.00  0.15  0.85  0.00  0.00  0.10  0.00
  WS02006112WS02006115    1.00   0.01  0.00  0.00  0.99  0.00  0.00  0.00  0.00  0.00
  WS02006111WS02006112    1.00   0.01  0.00  0.00  0.99  0.00  0.00  0.00  0.74  0.00
  WS02006110WS02006113    1.00   0.00  0.00  0.00  0.99  0.00  0.00  0.00  0.00  0.00
  WS02006109WS02006110    1.00   0.00  0.00  0.00  1.00  0.00  0.00  0.00  0.00  0.00
  WS02004411WS02004412    1.00   0.05  0.00  0.00  0.95  0.00  0.00  0.00  0.00  0.00
  WS02004401WS02004402    1.00   0.01  0.00  0.00  0.99  0.00  0.00  0.00  0.01  0.00
  WS02004413WS02003067    1.00   0.05  0.01  0.00  0.00  0.00  0.94  0.00  0.00  0.00
  WS02004412WS02004413    1.00   0.05  0.00  0.00  0.95  0.00  0.00  0.00  0.00  0.00
  WS02004410WS02004411    1.00   0.05  0.00  0.00  0.95  0.00  0.00  0.00  0.00  0.00
  WS02004409WS02004410    1.00   0.05  0.00  0.00  0.95  0.00  0.00  0.00  0.00  0.00
  WS02004407WS02004409    1.00   0.05  0.00  0.00  0.94  0.01  0.00  0.00  0.81  0.00
  WS02004406WS02004407    1.00   0.00  0.05  0.00  0.95  0.00  0.00  0.00  0.00  0.00
  WS02004405WS02004406    1.00   0.00  0.00  0.00  1.00  0.00  0.00  0.00  0.02  0.00
  WS02004404WS02004405    1.00   0.00  0.00  0.00  1.00  0.00  0.00  0.00  0.00  0.00
  WS02004403WS02004404    1.00   0.00  0.01  0.00  0.99  0.00  0.00  0.00  0.02  0.00
  WS02004402WS02004403    1.00   0.01  0.00  0.00  0.99  0.00  0.00  0.00  0.00  0.00
  WS02004139WS02001211    1.00   0.00  0.00  0.00  1.00  0.00  0.00  0.00  0.00  0.00
  WS02004138WS02004139    1.00   0.00  0.00  0.00  1.00  0.00  0.00  0.00  1.00  0.00
  WS02003067WS02003066    1.00   0.06  0.00  0.00  0.94  0.00  0.00  0.00  0.00  0.00
  WS02001213WS02003059    1.00   0.00  0.00  0.00  1.00  0.00  0.00  0.00  0.00  0.00
  WS02001212WS02001213    1.00   0.00  0.00  0.00  0.93  0.00  0.06  0.00  0.00  0.00
  WS02001211WS02001212    1.00   0.00  0.00  0.00  1.00  0.00  0.00  0.00  0.00  0.00
  WS02003072WS02003073    1.00   0.00  0.00  0.00  0.00  0.00  0.00  1.00  0.00  0.00
  WS02003069WS02003072    1.00   0.00  0.00  0.00  1.00  0.00  0.00  0.00  0.06  0.00
  WS02003060WS02003069    1.00   0.00  0.00  0.00  0.99  0.01  0.00  0.00  0.05  0.00
  WS02003059WS02003060    1.00   0.00  0.00  0.00  1.00  0.00  0.00  0.00  0.00  0.00
  HS02004901HS02004770    1.00   0.03  0.00  0.00  0.97  0.00  0.00  0.00  0.00  0.00
  HS02004876HS02004881    1.00   0.01  0.00  0.00  0.83  0.16  0.00  0.00  0.00  0.00
  HS02004870HS02004876    1.00   0.00  0.00  0.00  1.00  0.00  0.00  0.00  0.95  0.00
  HS02004842HS02004848    1.00   0.00  0.03  0.00  0.97  0.00  0.00  0.00  0.53  0.00
  HS02004837HS02004842    1.00   0.00  0.00  0.00  1.00  0.00  0.00  0.00  0.11  0.00
  HS02004830HS02004837    1.00   0.00  0.00  0.00  1.00  0.00  0.00  0.00  0.99  0.00
  HS02004824HS02004830    1.00   0.00  0.00  0.00  1.00  0.00  0.00  0.00  0.03  0.00
  HS02004817HS02004824    1.00   0.00  0.00  0.00  1.00  0.00  0.00  0.00  0.86  0.00
  HS02004770HS02004777    1.00   0.00  0.03  0.00  0.97  0.00  0.00  0.00  0.01  0.00
  HS02004799HS02004480    1.00   0.00  0.01  0.00  0.96  0.00  0.03  0.00  0.00  0.00
  HS02004792HS02004799    1.00   0.00  0.00  0.00  1.00  0.00  0.00  0.00  0.98  0.00
  HS02004788HS02004792    1.00   0.00  0.00  0.00  1.00  0.00  0.00  0.00  0.98  0.00
  HS02004785HS02004788    1.00   0.00  0.00  0.00  1.00  0.00  0.00  0.00  0.00  0.00
  HS02004777HS02004785    1.00   0.00  0.00  0.00  1.00  0.00  0.00  0.00  0.10  0.00
  HS02004480HS02004478    1.00   0.03  0.00  0.00  0.70  0.00  0.00  0.27  0.00  0.00
  HS02004479HS02004480    1.00   0.01  0.00  0.00  0.99  0.00  0.00  0.00  0.10  0.00
  HS02004862HS02004870    1.00   0.00  0.00  0.00  1.00  0.00  0.00  0.00  0.02  0.00
  HS02004848HS02004852    1.00   0.03  0.00  0.00  0.97  0.00  0.00  0.00  0.83  0.00
  HS02004856HS02004862    1.00   0.00  0.04  0.00  0.96  0.00  0.00  0.00  0.85  0.00
  HS02004852HS02004856    1.00   0.03  0.00  0.00  0.97  0.00  0.00  0.00  0.69  0.00
  HS02004802HS02004478    1.00   0.03  0.00  0.00  0.97  0.00  0.00  0.00  0.01  0.00
  HS02004478WS02006287    1.00   0.04  0.00  0.00  0.76  0.20  0.00  0.00  0.58  0.00
  HS02004817HS02004807    1.00   0.00  0.03  0.00  0.97  0.00  0.00  0.00  0.01  0.00
  HS02004807HS02004802    1.00   0.03  0.00  0.00  0.96  0.00  0.00  0.00  0.00  0.00
  YS02001759YS02001757    1.00   0.00  0.00  0.00  1.00  0.00  0.00  0.00  0.15  0.00
  YS02001762YS02001759    1.00   0.00  0.00  0.00  1.00  0.00  0.00  0.00  0.01  0.00
  YS02001765YS02001762    1.00   0.00  0.00  0.00  1.00  0.00  0.00  0.00  0.13  0.00
  YS02001770YS02001767    1.00   0.00  0.00  0.00  1.00  0.00  0.00  0.00  0.00  0.00
  YS02001774YS02001770    1.00   0.00  0.03  0.00  0.97  0.00  0.00  0.00  0.01  0.00
  YS02001779YS02001774    1.00   0.00  0.00  0.00  1.00  0.00  0.00  0.00  0.15  0.00
  YS02001649YS02001757    1.00   0.00  0.00  0.00  1.00  0.00  0.00  0.00  0.14  0.00
  YS02001767YS02001765    1.00   0.00  0.00  0.00  1.00  0.00  0.00  0.00  0.00  0.00
  YS02006561YS02001783    1.00   0.04  0.00  0.00  0.49  0.48  0.00  0.00  0.35  0.00
  YS02001783YS02001784    1.00   0.00  0.04  0.00  0.96  0.00  0.00  0.00  0.00  0.00
  YS02001784YS02001785    1.00   0.00  0.00  0.00  1.00  0.00  0.00  0.00  0.15  0.00
  YS02001788YS02001790    1.00   0.00  0.00  0.00  0.51  0.49  0.00  0.00  0.28  0.00
  YS02001790YS02001791    1.00   0.00  0.00  0.00  0.49  0.51  0.00  0.00  0.33  0.00
  YS02001791YS02001793    1.00   0.00  0.00  0.00  0.53  0.47  0.00  0.00  0.02  0.00
  YS02001910YS02001907    1.00   0.00  0.00  0.00  0.99  0.00  0.00  0.01  0.11  0.00
  YS02001786YS02001788    1.00   0.00  0.00  0.00  0.49  0.51  0.00  0.00  0.00  0.00
  YS02001915YS02001910    1.00   0.00  0.00  0.00  0.99  0.01  0.00  0.00  0.12  0.00
  YS02001918YS02001915    1.00   0.00  0.00  0.00  0.99  0.00  0.00  0.00  0.44  0.00
  YS02001923YS02001920    1.00   0.00  0.00  0.00  1.00  0.00  0.00  0.00  0.65  0.00
  YS02001926YS02001923    1.00   0.00  0.02  0.00  0.26  0.00  0.72  0.00  0.00  0.00
  YS02001929YS02001926    1.00   0.00  0.03  0.00  0.97  0.00  0.00  0.00  0.56  0.00
  YS02001920YS02001918    1.00   0.00  0.00  0.00  1.00  0.00  0.00  0.00  0.00  0.00
  YS02001629YS02163301    1.00   0.03  0.00  0.00  0.96  0.00  0.00  0.00  0.00  0.00
  YS02001619YS02001622    1.00   0.03  0.00  0.00  0.97  0.00  0.00  0.00  0.00  0.00
  YS02001622YS02001625    1.00   0.03  0.00  0.00  0.97  0.00  0.00  0.00  0.02  0.00
  YS02001625YS02001629    1.00   0.03  0.01  0.00  0.95  0.00  0.01  0.00  0.00  0.00
  YS02163301YS02001633    1.00   0.00  0.03  0.00  0.97  0.00  0.00  0.00  0.00  0.00
  YS02163601YS02164001    1.00   0.00  0.02  0.00  0.98  0.00  0.00  0.00  0.00  0.00
  YS02164001YS02001641    1.00   0.00  0.02  0.00  0.98  0.00  0.00  0.00  0.05  0.00
  YS02001641YS02001644    1.00   0.00  0.00  0.00  1.00  0.00  0.00  0.00  0.00  0.00
  YS02001647YS02001649    1.00   0.00  0.04  0.00  0.96  0.00  0.00  0.00  0.01  0.00
  YS02006553YS02006556    1.00   0.00  0.00  0.00  1.00  0.00  0.00  0.00  0.03  0.00
  YS02006556YS02006558    1.00   0.00  0.00  0.00  1.00  0.00  0.00  0.00  0.00  0.00
  YSB6556YSB1171          1.00   0.01  0.02  0.00  0.97  0.00  0.00  0.00  0.00  0.00
  YS02001907YS02006553    1.00   0.00  0.01  0.00  0.99  0.00  0.00  0.00  0.00  0.00
  YS02006558YS02006561    1.00   0.04  0.00  0.00  0.26  0.70  0.00  0.00  0.35  0.00
  YS02001633YS02163601    1.00   0.00  0.00  0.00  1.00  0.00  0.00  0.00  0.14  0.00
  YS02001644YS02001647    1.00   0.00  0.04  0.00  0.96  0.00  0.00  0.00  0.00  0.00
  YS02001745YS02001748    1.00   0.00  0.00  0.00  0.94  0.00  0.00  0.06  0.00  0.00
  YS02001748YS02001751    1.00   0.00  0.00  0.00  0.98  0.02  0.00  0.00  0.13  0.00
  YS02001751YS02001754    1.00   0.00  0.00  0.00  0.96  0.00  0.00  0.04  0.01  0.00
  YS02001754YS02001757    1.00   0.00  0.00  0.00  1.00  0.00  0.00  0.00  0.15  0.00
  YS02001882YS02001884    1.00   0.03  0.00  0.00  0.96  0.00  0.00  0.00  0.00  0.00
  YS02001884YS02001887    1.00   0.02  0.01  0.00  0.97  0.00  0.00  0.00  0.00  0.00
  YS02001890YS02001895    1.00   0.00  0.03  0.00  0.96  0.00  0.00  0.00  0.00  0.00
  YS02001895YS02001898    1.00   0.04  0.00  0.00  0.96  0.00  0.01  0.00  0.00  0.00
  YS02001898YS02001901    1.00   0.04  0.00  0.00  0.96  0.00  0.00  0.00  0.00  0.00
  YS02001901YS02001904    1.00   0.04  0.00  0.00  0.96  0.00  0.00  0.00  0.00  0.00
  YS02001904YS02001907    1.00   0.00  0.04  0.00  0.96  0.00  0.00  0.00  0.00  0.00
  YS02001887YS02001890    1.00   0.00  0.00  0.00  0.99  0.00  0.01  0.00  0.00  0.00
  YS02001652YS02001649    1.00   0.00  0.00  0.00  1.00  0.00  0.00  0.00  0.14  0.00
  YS02001655YS02001652    1.00   0.00  0.00  0.00  0.96  0.00  0.00  0.04  0.01  0.00
  YS02001658YS02001655    1.00   0.00  0.03  0.00  0.95  0.02  0.00  0.00  0.01  0.00
  YS02001661YS02001658    1.00   0.03  0.00  0.00  0.94  0.03  0.00  0.00  0.00  0.00
  YS02001664YS02001661    1.00   0.03  0.00  0.00  0.94  0.02  0.00  0.00  0.06  0.00
  YSB1154YSB6556          1.00   0.03  0.00  0.00  0.97  0.00  0.00  0.00  0.01  0.00
  YSB1174YSB1171          1.00   0.01  0.01  0.00  0.98  0.00  0.00  0.00  0.00  0.00
  YSB1171HS02004479       1.00   0.01  0.00  0.00  0.99  0.00  0.00  0.00  0.09  0.00
  HS02004881HS02006253    1.00   0.01  0.00  0.00  0.84  0.02  0.00  0.13  0.74  0.00
  YS02001793JiankangQianchi    1.00   0.00  0.00  0.00  0.70  0.30  0.00  0.00  0.27  0.00
  YS02001757CaochengTiaoxuchi    1.00   0.00  0.05  0.00  0.93  0.03  0.00  0.00  0.00  0.00
  WSF200WS02003060        1.00   0.00  0.02  0.00  0.98  0.00  0.00  0.00  0.24  0.00
  1                       1.00   0.00  0.00  0.00  0.00  1.00  0.00  0.00  0.59  0.00
  
  
  *************************
  Conduit Surcharge Summary
  *************************
  
  ----------------------------------------------------------------------------
                                                           Hours        Hours 
                         --------- Hours Full --------   Above Full   Capacity
  Conduit                Both Ends  Upstream  Dnstream   Normal Flow   Limited
  ----------------------------------------------------------------------------
  WS02006280WS02006229        0.01      0.01      0.01      0.01         0.01
  WS02006229WS02006228        4.99      5.10      4.99      6.00         4.99
  WS02006256WS02006235        6.44      6.44      6.89      5.20         0.01
  WS02006253WS02006251        3.49      3.49      3.54      0.01         0.01
[...]
  YS02001649YS02001757        6.40      6.40      6.42      0.01         0.01
  YS02001767YS02001765        6.39      6.39      6.40      0.01         0.01
  YS02006561YS02001783        2.42      2.42      2.63      0.01         0.01
  YS02001783YS02001784        2.60      2.63      2.60      2.88         2.60
  YS02001784YS02001785        2.52      2.60      2.52      3.60         2.52
  YS02001788YS02001790        2.47      2.47      3.29      0.01         0.01
  YS02001790YS02001791        3.28      3.29      3.39      2.56         2.54
  YS02001791YS02001793        3.39      3.39      3.74      0.01         0.01
  YS02001910YS02001907        2.67      2.67      3.14      0.01         0.01
  YS02001786YS02001788        2.47      2.52      2.47      3.29         2.47
  YS02001915YS02001910        2.54      2.54      2.67      0.01         0.01
  YS02001918YS02001915        2.40      2.40      2.54      0.01         0.01
  YS02001923YS02001920        2.24      2.24      2.42      0.01         0.01
  YS02001926YS02001923        0.01      0.01      0.01      0.01         0.01
  YS02001929YS02001926        0.01      0.01      0.01      0.01         0.01
  YS02001920YS02001918        2.40      2.40      2.42      0.01         0.01
  YS02001629YS02163301        6.38      6.38      6.39      0.01         0.01
  YS02001619YS02001622        6.37      6.37      6.37      0.01         0.03
  YS02001622YS02001625        6.37      6.37      6.38      0.01         0.01
  YS02001625YS02001629        6.37      6.37      6.38      0.01         0.01
  YS02163301YS02001633        6.39      6.39      6.40      0.01         0.01
  YS02163601YS02164001        6.40      6.40      6.40      0.01         0.01
  YS02164001YS02001641        6.40      6.40      6.40      0.01         0.02
  YS02001641YS02001644        6.40      6.40      6.40      3.17         3.10
  YS02001647YS02001649        6.38      6.38      6.40      0.01         0.01
  YS02006553YS02006556        2.84      2.84      3.18      0.01         0.01
  YS02006556YS02006558        2.94      2.94      3.23      0.01         0.01
  YSB6556YSB1171              0.01      0.01      0.58      0.01         0.01
  YS02001907YS02006553        3.64      3.64      3.82      0.01         0.01
  YS02006558YS02006561        2.49      2.81      2.49      3.49         2.49
  YS02001633YS02163601        6.40      6.40      6.40      0.01         0.01
  YS02001644YS02001647        6.38      6.38      6.40      0.01         0.01
  YS02001745YS02001748        0.83      0.83      6.35      0.01         0.01
  YS02001748YS02001751        6.35      6.35      6.36      0.01         0.01
  YS02001751YS02001754        6.36      6.36      6.38      0.01         0.01
  YS02001754YS02001757        6.38      6.38      6.42      0.01         0.01
  YS02001882YS02001884        2.54      2.54      2.56      0.01         0.01
  YS02001884YS02001887        2.60      2.60      2.62      0.01         0.01
  YS02001890YS02001895        2.53      2.53      2.69      0.01         0.01
  YS02001895YS02001898        2.51      2.51      2.53      0.01         0.01
  YS02001898YS02001901        2.53      2.53      2.59      0.01         0.01
  YS02001901YS02001904        2.57      2.57      2.59      0.01         0.01
  YS02001904YS02001907        2.57      2.57      3.20      0.01         0.01
  YS02001887YS02001890        2.64      2.64      2.66      1.66         0.01
  YS02001652YS02001649        6.38      6.38      6.40      0.01         0.01
  YS02001655YS02001652        6.37      6.37      6.38      0.01         0.01
  YS02001658YS02001655        6.35      6.35      6.37      0.01         0.01
  YS02001661YS02001658        1.48      1.48      6.35      0.01         0.01
  YS02001664YS02001661        0.01      0.01      2.73      0.01         0.01
  YSB1174YSB1171              0.01      0.01      0.32      0.01         0.01
  HS02004881HS02006253        0.01      0.01      2.72      0.01         0.01
  YS02001793JiankangQianchi        3.65      3.65      4.85      0.01         0.01
  YS02001757CaochengTiaoxuchi        5.98      5.98      6.42      0.01         0.01
  
  
  ***************
  Pumping Summary
  ***************
  
  ---------------------------------------------------------------------------------------------------------
                                                  Min       Avg       Max     Total     Power    % Time Off
                        Percent   Number of      Flow      Flow      Flow    Volume     Usage    Pump Curve
  Pump                 Utilized   Start-Ups       LPS       LPS       LPS  10^6 ltr     Kw-hr    Low   High
  ---------------------------------------------------------------------------------------------------------
  CC-Pump-1               74.45           3      0.00    169.23    200.00     3.540      3.60    0.0    0.0
  CC-Pump-2               44.67           7      0.00    114.37    200.00     1.680      2.23    0.0    0.0
  JK-Pump-1               72.34           4      0.00    253.18    300.00     5.083     62.24    0.0    0.0
  JK-Pump-2               65.96           4      0.00    476.33    683.00     9.307    103.08    0.0   98.0
  XR-Pump-1               97.87           2      0.00     94.36     95.00     2.565     18.43    0.0    0.0
  XR-Pump-2               97.87           2      0.00     94.36     95.00     2.565     18.43    0.0    0.0
  XR-Pump-3               97.87           2      0.00     94.36     95.00     2.565     18.43    0.0    0.0
  XR-Pump-4               97.87           2      0.00     94.36     95.00     2.565     18.43    0.0    0.0
  
  
  ***************************
  Link Pollutant Load Summary
  ***************************
  
  ------------------------------------------------------------------------------------------
                                 COD            SS            TN            TP         NH4-N
  Link                            kg            kg            kg            kg            kg
  ------------------------------------------------------------------------------------------
  WS02003066WSF200          1487.311      2905.460        34.426         2.800        17.510
  WS02006287WS02006284       662.642      1308.484        17.242         1.527         9.011
  WS02006284WS02006280       663.092      1309.186        17.289         1.533         9.041
  WS02006280WS02006229       663.181      1309.464        17.287         1.533         9.040
  WS02006229WS02006228      1472.014      2875.311        33.606         2.697        17.019
  WS02006256WS02006235       295.086       562.539         6.296         0.471         3.132
  WS02006253WS02006251       127.851       259.031         2.699         0.195         1.317
  WS02006252WS02006251       590.849      1156.753        11.292         0.777         5.446
  WS02006251WS02006249       710.988      1401.240        13.867         0.966         6.708
  WS02006249WS02006248       551.664      1080.495        10.807         0.752         5.235
  WS02006248WS02006247       556.448      1089.628        10.924         0.763         5.297
  WS02006247WS02006245       554.735      1085.576        10.901         0.762         5.288
  WS02006245WS02006243       553.219      1081.997        10.879         0.761         5.279
  WS02006243WS02006242       551.893      1078.560        10.866         0.761         5.275
  WS02006242WS02006240       549.568      1073.181        10.827         0.759         5.257
  WS02006240WS02006239       548.452      1070.504        10.806         0.758         5.248
  WS02006239WS02006238       548.638      1070.727        10.804         0.758         5.247
  WS02006238WS02006235       548.505      1070.440        10.790         0.756         5.239
  WS02006235WS02006234       816.488      1580.837        16.512         1.182         8.080
  WS02006234WS02006232       819.336      1586.553        16.587         1.189         8.120
  WS02006232WS02006231       822.376      1592.728        16.664         1.196         8.161
  WS02006231WS02006230       825.729      1599.647        16.746         1.203         8.204
  WS02006230WS02006229       830.291      1609.139        16.845         1.212         8.254
  WS02006228WS02006109      1471.457      2874.332        33.589         2.696        17.009
  WS02006116WS02004401      1503.107      2934.451        34.795         2.828        17.696
  WS02006115WS02006116      1504.096      2936.276        34.820         2.830        17.709
  WS02006113WS02006111      1478.517      2885.675        34.354         2.793        17.492
  WS02006112WS02006115      1505.536      2938.972        34.863         2.834        17.733
  WS02006111WS02006112      1477.729      2883.999        34.336         2.792        17.482
  WS02006110WS02006113      1478.878      2886.173        34.370         2.795        17.501
  WS02006109WS02006110      1479.682      2887.470        34.403         2.798        17.519
  WS02004411WS02004412      1492.386      2914.655        34.583         2.814        17.596
  WS02004401WS02004402      1501.691      2931.830        34.752         2.824        17.673
  WS02004413WS02003067      1488.558      2907.718        34.457         2.802        17.526
  WS02004412WS02004413      1490.632      2911.471        34.535         2.810        17.570
  WS02004410WS02004411      1493.808      2917.232        34.621         2.818        17.616
  WS02004409WS02004410      1495.191      2919.749        34.660         2.821        17.636
  WS02004407WS02004409      1496.373      2921.886        34.690         2.823        17.652
  WS02004406WS02004407      1496.665      2922.344        34.694         2.823        17.653
  WS02004405WS02004406      1498.516      2925.648        34.769         2.831        17.696
  WS02004404WS02004405      1499.639      2927.796        34.769         2.829        17.692
  WS02004403WS02004404      1499.287      2927.410        34.683         2.818        17.636
  WS02004402WS02004403      1500.460      2929.570        34.719         2.821        17.656
  WS02004139WS02001211      1287.442      2234.422        86.731        10.257        52.524
  WS02004138WS02004139      1293.167      2244.270        87.113        10.302        52.754
  WS02003067WS02003066      1487.607      2905.990        34.435         2.801        17.515
  WS02001213WS02003059      1321.532      2287.462        90.372        10.718        54.817
  WS02001212WS02001213      1330.120      2302.036        90.996        10.793        55.198
  WS02001211WS02001212      1332.252      2305.545        91.174        10.815        55.307
  WS02003072WS02003073      2907.374      5348.646       134.840        14.783        78.628
  WS02003069WS02003072      2912.986      5357.937       135.281        14.836        78.900
  WS02003060WS02003069      2916.114      5363.491       135.411        14.850        78.974
  WS02003059WS02003060      1318.733      2282.522        90.216        10.700        54.725
  HS02004901HS02004770        31.237        62.178         0.612         0.047         0.291
  HS02004876HS02004881       101.414       206.329         2.154         0.154         1.046
  HS02004870HS02004876        77.888       158.596         1.700         0.122         0.826
  HS02004842HS02004848        14.996        29.643         0.314         0.022         0.147
  HS02004837HS02004842        19.707        37.149         0.788         0.082         0.444
  HS02004830HS02004837       101.806       187.057         5.288         0.600         3.141
  HS02004824HS02004830       102.663       188.507         5.364         0.610         3.188
  HS02004817HS02004824       158.470       303.825         6.498         0.682         3.738
  HS02004770HS02004777       119.646       241.814         2.495         0.175         1.169
  HS02004799HS02004480       374.824       742.451         8.578         0.702         4.270
  HS02004792HS02004799       343.086       676.947         8.002         0.666         3.998
  HS02004788HS02004792       180.013       356.937         4.686         0.402         2.399
  HS02004785HS02004788       121.026       244.018         2.637         0.193         1.258
  HS02004777HS02004785       120.344       242.937         2.574         0.185         1.219
  HS02004480HS02004478       464.817       922.689        10.233         0.827         5.069
  HS02004479HS02004480        93.772       186.478         1.954         0.161         0.984
  HS02004862HS02004870        60.204       121.272         1.340         0.100         0.653
  HS02004848HS02004852        26.761        53.672         0.548         0.038         0.256
  HS02004856HS02004862        41.869        85.061         0.850         0.058         0.403
  HS02004852HS02004856        26.785        53.715         0.548         0.038         0.257
  HS02004802HS02004478       198.960       387.632         7.078         0.708         3.984
  HS02004478WS02006287       662.724      1308.525        17.258         1.529         9.022
  HS02004817HS02004807       157.282       302.055         6.357         0.664         3.649
  HS02004807HS02004802       198.925       387.533         7.103         0.712         4.001
  YS02001759YS02001757       624.267      1205.089        12.212         0.866         5.958
  YS02001762YS02001759       339.097       652.370         6.875         0.491         3.376
  YS02001765YS02001762       339.528       654.477         6.893         0.492         3.387
  YS02001770YS02001767       344.469       667.676         6.846         0.479         3.341
  YS02001774YS02001770       804.375      1603.692        15.713         1.071         7.628
  YS02001779YS02001774       803.893      1602.898        15.775         1.081         7.672
  YS02001649YS02001757       664.924      1286.456        13.201         0.911         6.382
  YS02001767YS02001765       341.380       659.425         6.933         0.495         3.407
  YS02006561YS02001783      1600.140      3068.838        33.119         2.426        16.334
  YS02001783YS02001784      1599.999      3068.618        33.113         2.425        16.331
  YS02001784YS02001785      1607.394      3080.512        33.827         2.514        16.777
  YS02001788YS02001790      1607.962      3081.449        33.897         2.524        16.822
  YS02001790YS02001791      1608.975      3083.121        33.996         2.536        16.884
  YS02001791YS02001793      1608.843      3082.859        33.992         2.536        16.881
  YS02001910YS02001907       951.956      1849.565        20.349         1.453        10.120
  YS02001786YS02001788      1607.597      3080.869        33.854         2.518        16.795
  YS02001915YS02001910       951.427      1848.502        20.300         1.446        10.089
  YS02001918YS02001915       473.206       888.144        10.548         0.857         5.395
  YS02001923YS02001920       447.662       844.228         8.515         0.610         4.140
  YS02001926YS02001923       444.564       838.584         8.394         0.598         4.071
  YS02001929YS02001926       441.867       833.763         8.299         0.588         4.017
  YS02001920YS02001918       468.744       878.710        10.452         0.850         5.347
  YS02001629YS02163301       210.574       398.311         4.144         0.295         1.982
  YS02001619YS02001622       451.012       868.423         9.084         0.615         4.291
  YS02001622YS02001625       450.709       868.037         9.072         0.614         4.286
  YS02001625YS02001629       204.957       387.329         4.044         0.287         1.932
  YS02163301YS02001633       216.316       409.566         4.244         0.304         2.032
  YS02163601YS02164001       716.025      1349.689        13.902         1.022         6.718
  YS02164001YS02001641       716.692      1350.891        13.901         1.021         6.716
  YS02001641YS02001644       719.067      1355.179        13.936         1.023         6.731
  YS02001647YS02001649       854.124      1644.245        17.113         1.205         8.208
  YS02006553YS02006556       809.612      1515.321        17.520         1.316         8.765
  YS02006556YS02006558       810.114      1516.279        17.487         1.311         8.742
  YSB6556YSB1171              54.545       108.519         1.086         0.087         0.541
  YS02001907YS02006553       809.429      1514.943        17.565         1.323         8.796
  YS02006558YS02006561      1600.061      3068.658        33.118         2.426        16.333
  YS02001633YS02163601       716.583      1350.608        13.878         1.017         6.699
  YS02001644YS02001647       861.187      1658.309        17.223         1.213         8.260
  YS02001745YS02001748       597.839      1178.468        11.859         0.761         5.722
  YS02001748YS02001751       597.374      1177.711        11.870         0.763         5.732
  YS02001751YS02001754       596.653      1176.537        11.858         0.763         5.727
  YS02001754YS02001757       597.840      1178.432        12.027         0.786         5.836
  YS02001882YS02001884         3.993         7.219         0.074         0.006         0.036
  YS02001884YS02001887         8.230        15.142         0.151         0.011         0.074
  YS02001890YS02001895       827.097      1598.215        15.722         1.198         7.699
  YS02001895YS02001898       826.922      1598.016        15.714         1.197         7.695
  YS02001898YS02001901       826.694      1597.576        15.709         1.197         7.692
  YS02001901YS02001904       826.638      1597.518        15.726         1.199         7.703
  YS02001904YS02001907       826.905      1597.877        15.784         1.207         7.740
  YS02001887YS02001890      1075.742      2094.587        20.306         1.549         9.938
  YS02001652YS02001649       540.652      1048.118        10.763         0.786         5.084
  YS02001655YS02001652       541.161      1048.967        10.778         0.788         5.091
  YS02001658YS02001655       540.768      1048.363        10.695         0.776         5.037
  YS02001661YS02001658       541.263      1049.147        10.706         0.777         5.041
  YS02001664YS02001661       555.717      1072.069        11.065         0.801         5.207
  YSB1154YSB6556              54.071       107.778         1.038         0.081         0.511
  YSB1174YSB1171              37.704        75.535         0.747         0.059         0.369
  YSB1171HS02004479           93.612       186.166         1.960         0.162         0.989
  HS02004881HS02006253       114.039       232.606         2.389         0.170         1.159
  YS02001793JiankangQianchi      1609.290      3083.588        34.010         2.537        16.891
  YS02001757CaochengTiaoxuchi       903.383      1741.590        17.741         1.221         8.584
  WSF200WS02003060          1486.789      2904.506        34.426         2.801        17.512
  1                         2913.130      5356.517       135.831        14.914        79.267
  CC-Pump-1                  399.029       780.729         7.632         0.525         3.681
  CC-Pump-2                  191.624       375.586         3.657         0.252         1.763
  JK-Pump-1                  469.281       902.732         9.807         0.727         4.856
  JK-Pump-2                  994.230      1931.052        20.287         1.489         9.991
  XR-Pump-1                  324.196       562.594        21.846         2.584        13.230
  XR-Pump-2                  324.196       562.594        21.846         2.584        13.230
  XR-Pump-3                  324.196       562.594        21.846         2.584        13.230
  XR-Pump-4                  324.196       562.594        21.846         2.584        13.230
  

  Analysis begun on:  Wed Jul 14 23:32:00 2021
  Analysis ended on:  Wed Jul 14 23:32:03 2021
  Total elapsed time: 00:00:03