
  EPA STORM WATER MANAGEMENT MODEL - VERSION 5.1 (Build 5.3.0.dev0)
  --------------------------------------------------------------

  WARNING 04: minimum elevation drop used for Conduit WS02004404WS02004405
  WARNING 03: negative offset ignored for Link YS02001904YS02001907
  
  *********************************************************
  NOTE: The summary statistics displayed in this report are
  based on results found at every computational time step,  
  not just on results from each reporting time step.
  *********************************************************
  
  ****************
  Analysis Options
  ****************
  Flow Units ............... LPS
  Process Models:
    Rainfall/Runoff ........ YES
    RDII ................... NO
    Snowmelt ............... NO
    Groundwater ............ NO
    Flow Routing ........... YES
    Ponding Allowed ........ NO
    Water Quality .......... YES
  Infiltration Method ...... HORTON
  Flow Routing Method ...... DYNWAVE
  Surcharge Method ......... EXTRAN
  Starting Date ............ 08/28/2015 08:00:00
  Ending Date .............. 08/28/2015 15:50:00
  Antecedent Dry Days ...... 8.0
  Report Time Step ......... 00:01:00
  Wet Time Step ............ 00:01:00
  Dry Time Step ............ 00:01:00
  Routing Time Step ........ 5.00 sec
  Variable Time Step ....... YES
  Maximum Trials ........... 8
  Number of Threads ........ 4
  Head Tolerance ........... 0.001500 m
  
  
  **************************        Volume         Depth
  Runoff Quantity Continuity     hectare-m            mm
  **************************     ---------       -------
  Total Precipitation ......         7.641        16.729
  Evaporation Loss .........         0.000         0.000
  Infiltration Loss ........         1.184         2.592
  Surface Runoff ...........         5.481        12.000
  Final Storage ............         0.977         2.139
  Continuity Error (%) .....        -0.016
  
  
  **************************           COD            SS            TN            TP         NH4-N
  Runoff Quality Continuity             kg            kg            kg            kg            kg
  **************************    ----------    ----------    ----------    ----------    ----------
  Initial Buildup ..........     41378.656     70582.865      1804.177       168.684      1032.807
  Surface Buildup ..........        30.344        63.217         2.449         0.220         1.402
  Wet Deposition ...........         0.000         0.000         0.000         0.000         0.000
  Sweeping Removal .........         0.000         0.000         0.000         0.000         0.000
  Infiltration Loss ........       127.934       247.015         2.452         0.174         1.174
  BMP Removal ..............         0.000         0.000         0.000         0.000         0.000
  Surface Runoff ...........      5553.100     10632.121       107.101         7.411        51.076
  Remaining Buildup ........     35725.917     59762.998      1697.031       161.316       981.940
  Continuity Error (%) .....         0.005         0.006         0.002         0.002         0.002
  
  
  **************************        Volume        Volume
  Flow Routing Continuity        hectare-m      10^6 ltr
  **************************     ---------     ---------
  Dry Weather Inflow .......         0.616         6.165
  Wet Weather Inflow .......         5.479        54.791
  Groundwater Inflow .......         0.000         0.000
  RDII Inflow ..............         0.000         0.000
  External Inflow ..........         0.102         1.024
  External Outflow .........         2.232        22.319
  Flooding Loss ............         3.504        35.039
  Evaporation Loss .........         0.000         0.000
  Exfiltration Loss ........         0.000         0.000
  Initial Stored Volume ....         0.076         0.761
  Final Stored Volume ......         0.651         6.507
  Continuity Error (%) .....        -1.793
  
  
  **************************           COD            SS            TN            TP         NH4-N
  Quality Routing Continuity            kg            kg            kg            kg            kg
  **************************    ----------    ----------    ----------    ----------    ----------
  Dry Weather Inflow .......      1541.201      2465.922       147.955        18.494        92.472
  Wet Weather Inflow .......      5551.933     10630.031       107.076         7.409        51.065
  Groundwater Inflow .......         0.000         0.000         0.000         0.000         0.000
  RDII Inflow ..............         0.000         0.000         0.000         0.000         0.000
  External Inflow ..........       183.418       293.469        17.608         2.201        11.005
  External Outflow .........      2706.249      4839.163       145.804        16.599        86.713
  Flooding Loss ............      3878.456      7348.759        98.514         8.576        51.656
  Exfiltration Loss ........         0.000         0.000         0.000         0.000         0.000
  Mass Reacted .............         0.000         0.000         0.000         0.000         0.000
  Initial Stored Mass ......         0.000         0.000         0.000         0.000         0.000
  Final Stored Mass ........       572.573      1001.414        24.827         2.627        14.321
  Continuity Error (%) .....         1.639         1.494         1.282         1.077         1.198
  
  
  *************************
  Highest Continuity Errors
  *************************
  Node HS02004842 (10.96%)
  Node JK-storage (-9.15%)
  Node YS02001884 (8.96%)
  Node HS02004817 (2.13%)
  Node YSB1171 (1.97%)
  
  
  ***************************
  Time-Step Critical Elements
  ***************************
  Link WS02006252WS02006251 (74.04%)
  Link WS02006280WS02006229 (8.11%)
  Link YS02001793JiankangQianchi (2.88%)
  Link WS02006235WS02006234 (2.27%)
  Link YS02006556YS02006558 (1.94%)
  
  
  ********************************
  Highest Flow Instability Indexes
  ********************************
  Link WS02006113WS02006111 (33)
  Link YS02163601YS02164001 (25)
  Link YS02163301YS02001633 (25)
  Link YS02001629YS02163301 (25)
  Link WS02006111WS02006112 (25)
  
  
  *************************
  Routing Time Step Summary
  *************************
  Minimum Time Step           :     0.50 sec
  Average Time Step           :     1.03 sec
  Maximum Time Step           :     5.00 sec
  Percent in Steady State     :    -0.00
  Average Iterations per Step :     3.58
  Percent Not Converging      :    12.99
  
  
  ***************************
  Subcatchment Runoff Summary
  ***************************
  
  ------------------------------------------------------------------------------------------------------------------------------
                            Total      Total      Total      Total     Imperv       Perv      Total       Total     Peak  Runoff
                           Precip      Runon       Evap      Infil     Runoff     Runoff     Runoff      Runoff   Runoff   Coeff
  Subcatchment                 mm         mm         mm         mm         mm         mm         mm    10^6 ltr      LPS
  ------------------------------------------------------------------------------------------------------------------------------
  sub0                      16.73       0.00       0.00       0.71      15.51       0.47      15.98        0.01     3.87   0.955
  sub1                      16.73       0.00       0.00       1.18      14.80       0.66      15.46        0.10    26.74   0.924
  sub2                      16.73       0.00       0.00       4.79      10.46       1.40      11.85        0.11    25.81   0.708
  sub3                      16.73       0.00       0.00       5.01      10.42       1.18      11.60        0.26    56.97   0.693
  sub4                      16.73       0.00       0.00       1.28      14.64       0.56      15.20        0.32    66.74   0.909
  sub5                      16.73       0.00       0.00       0.73      15.46       0.44      15.91        0.18    46.91   0.951
  sub7                      16.73       0.00       0.00       0.93      15.16       0.58      15.74        0.05    14.85   0.941
  sub8                      16.73       0.00       0.00       0.94      15.15       0.57      15.72        0.10    27.42   0.940
  sub9                      16.73       0.00       0.00       0.94      15.15       0.57      15.72        0.08    20.52   0.940
  sub10                     16.73       0.00       0.00       0.83      15.30       0.50      15.81        0.17    46.04   0.945
  sub11                     16.73       0.00       0.00       0.83      15.32       0.51      15.83        0.18    50.62   0.947
  sub12                     16.73       0.00       0.00       1.34      14.51       0.83      15.34        0.13    39.22   0.917
  sub14                     16.73       0.00       0.00       0.94      15.15       0.57      15.72        0.15    40.40   0.939
  sub15                     16.73       0.00       0.00       3.54      11.65       1.48      13.13        0.23    57.86   0.785
  sub16                     16.73       0.00       0.00       3.72      11.17       1.80      12.97        0.14    37.34   0.776
  sub17                     16.73       0.00       0.00       3.62      11.33       1.73      13.07        0.11    30.57   0.781
  sub22                     16.73       0.00       0.00       5.27       9.49       1.92      11.42        0.72   183.11   0.683
  sub23                     16.73       0.00       0.00       4.37      10.50       1.82      12.32        0.59   153.57   0.736
  sub60                     16.73       0.00       0.00       1.74      12.78       0.27      13.05        3.96   446.24   0.780
  sub61                     16.73       0.00       0.00       2.46      12.72       0.38      13.11        4.04   542.53   0.784
  sub62                     16.73       0.00       0.00       1.06      13.91       0.27      14.19        4.36   558.01   0.848
  sub63                     16.73       0.00       0.00       4.39      11.06       0.46      11.52        3.49   496.40   0.689
  sub64                     16.73       0.00       0.00       2.23      12.28       0.28      12.56        3.82   424.95   0.751
  sub65                     16.73       0.00       0.00       1.91      12.51       0.27      12.77        3.93   431.32   0.764
  sub66                     16.73       0.00       0.00       4.54      10.46       0.31      10.78        3.31   388.44   0.644
  sub67                     16.73       0.00       0.00       1.01      14.45       0.32      14.78        4.56   675.76   0.883
  sub68                     16.73       0.00       0.00       1.95      13.33       0.39      13.71        4.22   589.75   0.820
  sub69                     16.73       0.00       0.00       2.00      13.62       0.51      14.12        3.30   542.07   0.844
  sub70                     16.73      14.42       0.00       8.47      19.01       2.12      21.13        4.84   534.50   0.678
  sub71                     16.73       0.00       0.00       1.08      13.65       0.25      13.90        3.28   394.68   0.831
  sub72                     16.73       0.00       0.00       1.02      11.50       0.15      11.65        2.37   206.66   0.697
  1                         16.73      20.58       0.00       1.37      22.38       7.20      29.58        6.95   612.18   0.793
  2                         16.73       0.00       0.00       3.02       4.04       3.18       7.22        2.89   331.58   0.431
  
  
  ****************************
  Subcatchment Washoff Summary
  ****************************
  
  ------------------------------------------------------------------------------------------
                                 COD            SS            TN            TP         NH4-N
  Subcatchment                    kg            kg            kg            kg            kg
  ------------------------------------------------------------------------------------------
  sub0                         3.641         7.161         0.064         0.005         0.031
  sub1                        15.670        31.767         0.296         0.021         0.143
  sub2                        10.304        20.454         0.214         0.015         0.099
  sub3                        25.293        49.815         0.517         0.036         0.240
  sub4                        36.168        74.260         0.714         0.044         0.344
  sub5                        35.763        71.366         0.649         0.050         0.316
  sub7                         7.894        16.212         0.150         0.010         0.073
  sub8                        11.755        24.726         0.234         0.014         0.113
  sub9                        10.113        20.966         0.196         0.013         0.095
  sub10                       29.347        59.341         0.545         0.040         0.265
  sub11                       28.395        58.052         0.536         0.037         0.260
  sub12                       24.463        49.072         0.450         0.034         0.218
  sub14                       21.697        44.543         0.414         0.028         0.200
  sub15                       29.696        58.821         0.572         0.042         0.270
  sub16                       19.246        38.050         0.367         0.028         0.174
  sub17                       17.687        34.653         0.330         0.026         0.156
  sub22                       95.915       186.896         1.820         0.139         0.857
  sub23                       54.382       109.539         1.141         0.076         0.527
  sub60                      353.947       679.509         6.988         0.437         3.357
  sub61                      439.695       840.113         8.188         0.570         3.952
  sub62                      449.790       873.119         8.744         0.564         4.209
  sub63                      328.186       618.356         6.505         0.463         3.037
  sub64                      450.924       835.563         8.299         0.611         3.976
  sub65                      460.537       856.688         8.527         0.617         4.090
  sub66                      259.427       485.147         5.248         0.348         2.463
  sub67                      667.181      1281.068        12.075         0.900         5.853
  sub68                      479.473       924.467         9.153         0.628         4.389
  sub69                      429.286       835.450         8.068         0.576         3.873
  sub70                      758.301      1478.311        15.194         1.074         7.173
  sub71                      296.268       580.620         6.027         0.356         2.890
  sub72                      247.759       452.374         4.612         0.320         2.223
  1                          576.917      1130.968        11.723         0.829         5.484
  2                           65.566       118.435         1.802         0.109         0.773
  ------------------------------------------------------------------------------------------
  System                    6740.687     12945.882       130.363         9.060        62.122
  
  
  ******************
  Node Depth Summary
  ******************
  
  ---------------------------------------------------------------------------------
                                 Average  Maximum  Maximum  Time of Max    Reported
                                   Depth    Depth      HGL   Occurrence   Max Depth
  Node                 Type       Meters   Meters   Meters  days hr:min      Meters
  ---------------------------------------------------------------------------------
  WS02001211           JUNCTION     0.79     0.85     5.69     0  02:01        0.85
  WS02001212           JUNCTION     0.50     0.58     5.64     0  02:01        0.58
  WS02001213           JUNCTION     0.74     0.86     5.62     0  02:01        0.86
  WS02003069           JUNCTION     0.55     0.72     5.31     0  02:00        0.72
  WS02003072           JUNCTION     0.61     0.77     5.14     0  02:00        0.77
  WS02003073           JUNCTION     0.38     0.48     4.55     0  02:01        0.48
  WS02003060           JUNCTION     0.49     0.64     5.57     0  01:59        0.64
  WS02003066           JUNCTION     0.27     0.39     5.94     0  01:55        0.39
  WS02003059           JUNCTION     0.79     0.91     5.60     0  02:00        0.91
  WS02003067           JUNCTION     0.64     0.83     6.15     0  01:53        0.83
  WS02004401           JUNCTION     0.80     1.30     7.30     0  01:51        1.29
  WS02004402           JUNCTION     0.82     1.29     7.25     0  01:51        1.27
  WS02004403           JUNCTION     0.84     1.27     7.20     0  01:51        1.24
  WS02004404           JUNCTION     0.91     1.31     7.16     0  01:51        1.28
  WS02004406           JUNCTION     0.90     1.20     7.03     0  01:51        1.18
  WS02004409           JUNCTION     0.61     0.98     6.75     0  01:54        0.98
  WS02004410           JUNCTION     0.62     0.96     6.68     0  01:54        0.96
  WS02004411           JUNCTION     0.63     0.94     6.62     0  01:54        0.94
  WS02004412           JUNCTION     0.64     0.92     6.56     0  01:54        0.91
  WS02004413           JUNCTION     0.79     1.03     6.50     0  01:54        1.03
  WS02004405           JUNCTION     0.90     1.27     7.12     0  01:51        1.24
  WS02006109           JUNCTION     0.91     1.75     8.37     0  01:52        1.74
  WS02006110           JUNCTION     0.87     1.54     8.12     0  01:51        1.53
  WS02006111           JUNCTION     0.30     1.02     7.73     0  01:51        0.98
  WS02006112           JUNCTION     0.99     1.65     7.53     0  01:51        1.65
  WS02006113           JUNCTION     0.42     1.29     8.18     0  01:51        1.02
  WS02006115           JUNCTION     0.70     1.31     7.45     0  01:51        1.30
  WS02006116           JUNCTION     0.78     1.34     7.38     0  01:51        1.33
  WS02006230           JUNCTION     0.96     1.97     8.72     0  01:52        1.95
  WS02006231           JUNCTION     0.70     1.61     8.73     0  01:52        1.59
  WS02006232           JUNCTION     0.85     1.70     8.74     0  01:52        1.68
  WS02006234           JUNCTION     0.80     1.59     8.75     0  01:52        1.57
  WS02006235           JUNCTION     0.85     1.59     8.76     0  01:52        1.58
  WS02006238           JUNCTION     0.88     1.61     8.75     0  01:52        1.59
  WS02006240           JUNCTION     0.79     1.44     8.74     0  01:52        1.43
  WS02006242           JUNCTION     0.85     1.46     8.73     0  01:52        1.45
  WS02006243           JUNCTION     0.73     1.30     8.72     0  01:52        1.29
  WS02006245           JUNCTION     0.70     1.22     8.71     0  01:52        1.21
  WS02006247           JUNCTION     0.71     1.21     8.71     0  01:52        1.19
  WS02006248           JUNCTION     0.65     1.10     8.69     0  01:51        1.10
  WS02006249           JUNCTION     0.67     1.09     8.69     0  01:50        1.09
  WS02006239           JUNCTION     0.84     1.54     8.75     0  01:52        1.52
  WS02006251           JUNCTION     0.64     1.22     8.89     0  07:28        1.18
  WS02006252           JUNCTION     0.38     0.77     9.01     0  07:28        0.69
  WS02006253           JUNCTION     0.67     1.32     8.96     0  01:50        1.22
  WS02006256           JUNCTION     1.91     2.35     9.28     0  00:00        2.35
  WS02004138           JUNCTION     0.19     0.20     7.45     0  00:00        0.19
  WS02004139           JUNCTION     0.73     0.79     5.70     0  02:01        0.79
  WS02004407           JUNCTION     0.27     0.40     6.72     0  01:52        0.40
  WS02006228           JUNCTION     0.94     1.93     8.58     0  01:52        1.92
  WS02006229           JUNCTION     0.93     2.01     8.70     0  01:52        1.98
  WS02006280           JUNCTION     0.08     0.33     8.60     0  01:51        0.30
  WS02006284           JUNCTION     0.38     0.66     9.06     0  01:54        0.66
  WS02006287           JUNCTION     0.11     0.40     9.36     0  01:54        0.40
  WSF200               JUNCTION     0.27     0.44     5.67     0  01:54        0.44
  HS02004901           JUNCTION     0.14     0.38    10.21     0  01:53        0.38
  HS02004881           JUNCTION     0.01     0.05     9.08     0  01:54        0.05
  HS02004876           JUNCTION     0.05     0.17     9.20     0  01:54        0.17
  HS02004870           JUNCTION     0.02     0.10     9.38     0  01:54        0.10
  HS02004862           JUNCTION     0.02     0.11     9.50     0  01:55        0.11
  HS02004856           JUNCTION     0.08     0.15     9.58     0  01:54        0.15
  HS02004852           JUNCTION     0.01     0.08     9.59     0  01:55        0.08
  HS02004848           JUNCTION     0.01     0.07     9.67     0  01:54        0.07
  HS02004842           JUNCTION     0.34     0.40     9.67     0  01:54        0.40
  HS02004837           JUNCTION     0.03     0.09     9.67     0  01:54        0.09
  HS02004830           JUNCTION     0.04     0.11     9.58     0  01:55        0.11
  HS02004824           JUNCTION     0.03     0.15     9.55     0  01:54        0.15
  HS02004817           JUNCTION     0.45     0.71     9.56     0  01:54        0.71
  HS02004807           JUNCTION     0.14     0.38     9.55     0  01:55        0.38
  HS02004802           JUNCTION     0.17     0.41     9.54     0  01:55        0.41
  HS02004799           JUNCTION     0.13     0.48     9.69     0  01:53        0.48
  HS02004792           JUNCTION     0.04     0.22     9.75     0  01:53        0.22
  HS02004788           JUNCTION     0.03     0.16    10.06     0  01:54        0.16
  HS02004785           JUNCTION     0.05     0.25    10.15     0  01:53        0.25
  HS02004777           JUNCTION     0.16     0.40    10.20     0  01:53        0.40
  HS02004770           JUNCTION     0.13     0.37    10.21     0  01:53        0.37
  HS02004480           JUNCTION     0.09     0.39     9.64     0  01:53        0.39
  HS02004479           JUNCTION     0.13     0.43     9.64     0  01:53        0.43
  HS02004478           JUNCTION     0.07     0.29     9.52     0  01:54        0.29
  YS02001745           JUNCTION     0.80     0.95     8.47     0  02:39        0.95
  YS02001748           JUNCTION     1.21     1.53     8.61     0  01:47        1.38
  YS02001751           JUNCTION     1.39     1.62     8.50     0  01:47        1.57
  YS02001754           JUNCTION     1.65     1.84     8.44     0  02:40        1.84
  YS02001762           JUNCTION     1.85     2.03     8.43     0  02:39        2.03
  YS02001765           JUNCTION     1.80     1.98     8.43     0  02:37        1.98
  YS02001767           JUNCTION     1.77     1.94     8.43     0  02:37        1.94
  YS02001770           JUNCTION     1.76     1.93     8.42     0  02:37        1.93
  YS02001774           JUNCTION     1.83     1.98     8.40     0  02:12        1.98
  YS02001779           JUNCTION     1.57     1.68     8.37     0  01:47        1.68
  YS02001882           JUNCTION     0.69     1.66     8.38     0  01:52        1.63
  YS02001884           JUNCTION     0.78     1.75     8.37     0  01:52        1.73
  YS02001759           JUNCTION     1.89     2.07     8.44     0  02:37        2.07
  YS02001887           JUNCTION     0.86     1.82     8.36     0  01:52        1.81
  YS02001890           JUNCTION     0.89     1.81     8.32     0  01:52        1.81
  YS02001898           JUNCTION     0.65     1.60     8.33     0  01:52        1.56
  YS02001901           JUNCTION     0.77     1.71     8.32     0  01:52        1.67
  YS02001904           JUNCTION     0.75     1.66     8.29     0  01:52        1.63
  YS02001907           JUNCTION     1.08     1.96     8.25     0  01:52        1.96
  YS02001910           JUNCTION     0.87     1.82     8.33     0  01:53        1.80
  YS02001915           JUNCTION     0.67     1.67     8.39     0  01:53        1.63
  YS02001918           JUNCTION     0.41     1.42     8.49     0  01:53        1.33
  YS02001619           JUNCTION     1.35     1.57     8.50     0  01:45        1.48
  YS02001629           JUNCTION     1.71     1.85     8.40     0  01:47        1.84
  YS02001641           JUNCTION     1.80     1.94     8.37     0  06:02        1.93
  YS02001644           JUNCTION     1.81     1.92     8.35     0  01:48        1.92
  YS02001652           JUNCTION     1.66     2.08     8.68     0  03:54        1.88
  YS02001655           JUNCTION     1.42     2.06     8.91     0  03:54        1.66
  YS02001920           JUNCTION     0.51     1.52     8.53     0  01:53        1.43
  YS02001923           JUNCTION     0.34     1.31     8.57     0  01:53        1.21
  YS02001926           JUNCTION     0.37     1.15     8.59     0  01:53        1.05
  YS02001929           JUNCTION     0.23     0.92     8.62     0  01:53        0.84
  YS02001658           JUNCTION     1.15     2.01     9.15     0  03:54        1.40
  YS02001661           JUNCTION     0.90     1.95     9.36     0  03:54        1.27
  YS02001664           JUNCTION     0.41     0.56     8.49     0  04:07        0.56
  YS02001622           JUNCTION     1.37     1.56     8.47     0  01:45        1.50
  YS02001633           JUNCTION     1.80     1.96     8.41     0  01:47        1.94
  YS02001649           JUNCTION     1.86     2.05     8.44     0  03:51        2.05
  YS02001757           JUNCTION     1.99     2.17     8.44     0  02:41        2.17
  YS02001895           JUNCTION     0.65     1.58     8.33     0  01:52        1.56
  YS02001625           JUNCTION     1.66     1.78     8.38     0  01:45        1.78
  YS02163301           JUNCTION     1.74     1.89     8.41     0  01:47        1.88
  YS02163601           JUNCTION     1.85     1.99     8.39     0  01:47        1.99
  YS02164001           JUNCTION     1.79     1.92     8.38     0  01:48        1.91
  YS02001647           JUNCTION     1.64     1.80     8.41     0  04:10        1.79
  YSB1154              JUNCTION     0.27     0.58     9.64     0  01:53        0.58
  YSB6556              JUNCTION     0.16     0.47     9.64     0  01:53        0.47
  YSB1174              JUNCTION     0.22     0.53     9.64     0  01:53        0.53
  YSB1171              JUNCTION     0.42     0.74     9.64     0  01:53        0.74
  YS02006553           JUNCTION     1.08     1.98     8.26     0  01:52        1.97
  YS02006561           JUNCTION     0.41     1.08     7.74     0  02:13        1.08
  YS02006556           JUNCTION     1.05     1.95     8.26     0  01:52        1.93
  YS02006558           JUNCTION     1.09     1.98     8.25     0  01:52        1.97
  YS02001783           JUNCTION     0.64     1.46     7.60     0  02:10        1.46
  YS02001784           JUNCTION     0.65     1.40     7.47     0  02:12        1.40
  YS02001786           JUNCTION     0.57     1.24     7.27     0  02:16        1.24
  YS02001788           JUNCTION     0.49     1.11     7.08     0  02:18        1.10
  YS02001790           JUNCTION     0.62     1.78     7.42     0  06:21        1.25
  YS02001791           JUNCTION     0.58     1.57     7.04     0  06:18        1.23
  YS02001793           JUNCTION     0.81     3.60     8.43     0  04:34        1.78
  WSC                  OUTFALL      0.38     0.48     1.15     0  02:02        0.48
  JK-storage           STORAGE      3.14     5.80     6.60     0  04:36        5.80
  CC-storage           STORAGE      1.24     1.43     8.43     0  02:41        1.43
  XR-storage           STORAGE      7.14     7.72     5.72     0  02:10        7.72
  
  
  *******************
  Node Inflow Summary
  *******************
  
  -------------------------------------------------------------------------------------------------
                                  Maximum  Maximum                  Lateral       Total        Flow
                                  Lateral    Total  Time of Max      Inflow      Inflow     Balance
                                   Inflow   Inflow   Occurrence      Volume      Volume       Error
  Node                 Type           LPS      LPS  days hr:min    10^6 ltr    10^6 ltr     Percent
  -------------------------------------------------------------------------------------------------
  WS02001211           JUNCTION      7.35   389.50     0  07:48       0.207        10.4       0.396
  WS02001212           JUNCTION      0.00   391.56     0  07:48           0        10.4       0.241
  WS02001213           JUNCTION      0.00   393.38     0  07:47           0        10.4       0.285
  WS02003069           JUNCTION      0.32  1346.94     0  02:00     0.00902        22.4       0.170
  WS02003072           JUNCTION      0.00  1346.97     0  02:00           0        22.4       0.201
  WS02003073           JUNCTION      1.82  1349.13     0  02:01      0.0514        22.4       0.236
  WS02003060           JUNCTION     16.53  1346.62     0  02:00       0.466        22.4       0.158
  WS02003066           JUNCTION      0.00   956.97     0  01:55           0        11.7       0.043
  WS02003059           JUNCTION      0.00   396.25     0  07:47           0        10.3       0.399
  WS02003067           JUNCTION      0.00   956.64     0  01:54           0        11.7       0.086
  WS02004401           JUNCTION      0.00   968.11     0  01:52           0        11.9       0.181
  WS02004402           JUNCTION      0.00   967.94     0  01:52           0        11.9       0.170
  WS02004403           JUNCTION      0.00   968.61     0  01:52           0        11.9       0.155
  WS02004404           JUNCTION      0.16   968.87     0  01:52     0.00457        11.9       0.116
  WS02004406           JUNCTION      0.00   970.54     0  01:52           0        11.9       0.282
  WS02004409           JUNCTION      0.00   967.32     0  01:52           0        11.8       0.153
  WS02004410           JUNCTION      0.00   955.73     0  01:53           0        11.8       0.174
  WS02004411           JUNCTION      0.00   954.83     0  01:54           0        11.8       0.177
  WS02004412           JUNCTION      0.00   955.97     0  01:54           0        11.8       0.190
  WS02004413           JUNCTION      0.00   956.47     0  01:54           0        11.7       0.280
  WS02004405           JUNCTION      0.04   970.62     0  01:52     0.00107        11.9       0.176
  WS02006109           JUNCTION      1.23   936.15     0  01:52      0.0347        11.9       0.179
  WS02006110           JUNCTION      0.00   936.10     0  01:52           0        11.9       0.157
  WS02006111           JUNCTION      0.00   936.44     0  01:52           0        11.9       0.030
  WS02006112           JUNCTION     30.57   967.08     0  01:52       0.112          12       0.227
  WS02006113           JUNCTION      0.00   936.22     0  01:52           0        11.9       0.081
  WS02006115           JUNCTION      0.00   967.58     0  01:52           0          12       0.169
  WS02006116           JUNCTION      0.00   967.87     0  01:52           0          12       0.165
  WS02006230           JUNCTION     10.28   532.73     0  07:31        0.29        8.86       0.154
  WS02006231           JUNCTION      0.00   522.46     0  06:53           0        8.57       0.085
  WS02006232           JUNCTION      0.00   522.28     0  06:53           0        8.58       0.184
  WS02006234           JUNCTION      0.00   522.83     0  06:51           0        8.59       0.087
  WS02006235           JUNCTION      0.00   523.60     0  07:30           0        8.65       0.109
  WS02006238           JUNCTION      0.00   405.39     0  05:51           0        5.12       0.146
  WS02006240           JUNCTION      0.00   405.87     0  05:52           0         5.1       0.223
  WS02006242           JUNCTION      0.00   405.25     0  05:52           0         5.1       0.273
  WS02006243           JUNCTION      0.00   405.63     0  05:52           0        5.09       0.200
  WS02006245           JUNCTION      0.00   405.51     0  05:51           0        5.09       0.160
  WS02006247           JUNCTION      0.00   405.61     0  05:51           0        5.09       0.136
  WS02006248           JUNCTION      0.00   405.91     0  05:51           0        5.11       0.092
  WS02006249           JUNCTION      0.00   413.76     0  06:49           0        5.34       0.174
  WS02006239           JUNCTION      0.00   405.81     0  05:51           0        5.11       0.210
  WS02006251           JUNCTION      0.08   410.16     0  05:51     0.00217         5.4       0.152
  WS02006252           JUNCTION      0.00   400.00     0  04:30           0        4.74       0.010
  WS02006253           JUNCTION      3.87   156.77     0  01:54      0.0129       0.658       0.503
  WS02006256           JUNCTION      0.00   983.00     0  00:00           0        12.2      -0.012
  WS02004138           JUNCTION      0.00   380.00     0  00:00           0        10.3       0.061
  WS02004139           JUNCTION      0.32   396.51     0  00:00     0.00905        10.3       0.448
  WS02004407           JUNCTION      0.00   970.41     0  01:52           0        11.8       0.066
  WS02006228           JUNCTION      0.00   935.21     0  01:52           0        11.9       0.134
  WS02006229           JUNCTION      0.00   986.53     0  01:51           0        11.9       0.108
  WS02006280           JUNCTION      0.00   736.12     0  01:54           0        3.11       0.013
  WS02006284           JUNCTION      0.10   735.87     0  01:54      0.0027        3.11       0.019
  WS02006287           JUNCTION      0.00   735.65     0  01:54           0        3.11       0.023
  WSF200               JUNCTION      0.00   957.11     0  01:55           0        11.7       0.042
  HS02004901           JUNCTION     37.34    37.34     0  01:51       0.136       0.136       1.311
  HS02004881           JUNCTION     14.85   153.29     0  01:54       0.053       0.601       0.104
  HS02004876           JUNCTION     26.74   139.06     0  01:54       0.103       0.549       0.099
  HS02004870           JUNCTION     27.42   112.65     0  01:54         0.1       0.446       0.025
  HS02004862           JUNCTION     26.01    86.18     0  01:54       0.116       0.346       0.050
  HS02004856           JUNCTION     20.52    60.23     0  01:54      0.0756       0.231       0.629
  HS02004852           JUNCTION      0.00    40.37     0  01:54           0       0.155       0.036
  HS02004848           JUNCTION     56.97    56.97     0  01:56       0.261       0.261       0.018
  HS02004842           JUNCTION      0.00    18.18     0  02:06           0       0.119      12.306
  HS02004837           JUNCTION     52.39    67.88     0  01:54       0.353       0.459       0.177
  HS02004830           JUNCTION      0.15    67.98     0  01:54     0.00423       0.449       0.275
  HS02004824           JUNCTION     66.79   134.68     0  01:56       0.318       0.767       0.071
  HS02004817           JUNCTION      0.60   136.79     0  01:57      0.0169       0.783       2.176
  HS02004807           JUNCTION     50.62   183.93     0  01:55       0.184       0.952       0.461
  HS02004802           JUNCTION      0.00   183.89     0  01:56           0        0.95       0.414
  HS02004799           JUNCTION     40.40   470.75     0  01:53        0.15        1.87       0.160
  HS02004792           JUNCTION    183.39   430.98     0  01:53       0.729        1.72       0.023
  HS02004788           JUNCTION     59.53   248.80     0  01:53       0.273       0.991       0.039
  HS02004785           JUNCTION      0.15   189.56     0  01:53     0.00423        0.72       0.069
  HS02004777           JUNCTION      0.03   189.72     0  01:52    0.000846        0.72       0.728
  HS02004770           JUNCTION    153.57   190.39     0  01:52       0.587       0.722       0.429
  HS02004480           JUNCTION      0.00   554.34     0  01:53           0        2.18       0.044
  HS02004479           JUNCTION      0.00    83.76     0  01:53           0       0.323       0.228
  HS02004478           JUNCTION      0.00   735.59     0  01:54           0        3.11       0.010
  YS02001745           JUNCTION    446.25   446.25     0  02:16        3.95        3.95       0.276
  YS02001748           JUNCTION      0.04   451.44     0  02:16     0.00127        3.94       0.586
  YS02001751           JUNCTION      0.01   451.49     0  02:16     0.00031        3.92       0.611
  YS02001754           JUNCTION      0.26   452.26     0  02:16     0.00733        3.91       0.633
  YS02001762           JUNCTION      0.00   434.66     0  01:55           0        2.45       0.878
  YS02001765           JUNCTION      0.00   435.27     0  01:55           0        2.45       1.000
  YS02001767           JUNCTION      0.54   434.86     0  01:55      0.0151        2.47       1.462
  YS02001770           JUNCTION    558.16   716.29     0  02:40        4.36        5.27       0.602
  YS02001774           JUNCTION      0.00   716.29     0  02:40           0        3.69       0.678
  YS02001779           JUNCTION      0.01   716.29     0  02:40    0.000141        3.66       0.431
  YS02001882           JUNCTION      0.00    26.65     0  01:49           0      0.0323       6.864
  YS02001884           JUNCTION      0.00    45.89     0  01:48           0      0.0703       9.843
  YS02001759           JUNCTION    542.57   878.45     0  01:57        4.04        5.55       0.417
  YS02001887           JUNCTION    676.21   677.15     0  02:14        4.57         4.6       0.192
  YS02001890           JUNCTION      0.00   677.52     0  02:14           0        4.55       0.206
  YS02001898           JUNCTION      0.00   539.16     0  01:52           0        4.27       0.073
  YS02001901           JUNCTION      0.00   542.07     0  01:51           0        4.27       0.160
  YS02001904           JUNCTION      0.00   544.03     0  01:51           0        4.27       0.145
  YS02001907           JUNCTION      0.00  1182.32     0  01:54           0        9.98       0.250
  YS02001910           JUNCTION      0.00   659.75     0  01:54           0        5.73       0.222
  YS02001915           JUNCTION    394.70   658.89     0  01:54        3.28        5.77       0.097
  YS02001918           JUNCTION      0.00   361.46     0  01:54           0        2.52       0.053
  YS02001619           JUNCTION    388.44   388.44     0  02:16         3.3         3.3       0.373
  YS02001629           JUNCTION      0.00   219.60     0  01:48           0        1.43       2.044
  YS02001641           JUNCTION      0.00   457.17     0  01:48           0        5.09       0.410
  YS02001644           JUNCTION    424.99  1552.55     0  02:39        3.82        13.8       0.191
  YS02001652           JUNCTION      0.00   521.05     0  02:12           0        3.44       0.668
  YS02001655           JUNCTION      0.15   520.97     0  02:12     0.00434        3.46       0.734
  YS02001920           JUNCTION      2.87   360.49     0  01:54      0.0809         2.5       0.118
  YS02001923           JUNCTION      0.04   297.99     0  01:54     0.00106         2.4       0.042
  YS02001926           JUNCTION      0.05   238.92     0  01:54     0.00147        2.38       0.133
  YS02001929           JUNCTION    206.66   206.66     0  03:01        2.37        2.37       0.023
  YS02001658           JUNCTION      0.00   520.34     0  02:12           0        3.48       0.708
  YS02001661           JUNCTION      0.00   744.50     0  01:58           0        3.78      -0.068
  YS02001664           JUNCTION    496.40   496.40     0  02:16        3.49        3.79       0.146
  YS02001622           JUNCTION      0.00   388.90     0  02:16           0        3.29       0.965
  YS02001633           JUNCTION    431.52   456.41     0  01:48        3.93        5.24       0.614
  YS02001649           JUNCTION      0.00  1003.26     0  01:49           0         7.4       0.503
  YS02001757           JUNCTION      0.00  2147.01     0  01:55           0          11       0.835
  YS02001895           JUNCTION      0.00   540.45     0  01:52           0        4.28       0.121
  YS02001625           JUNCTION      0.00   435.52     0  02:16           0        3.34       1.191
  YS02163301           JUNCTION      0.00   222.98     0  01:45           0        1.42       1.705
  YS02163601           JUNCTION      0.11   456.74     0  01:48      0.0031        5.11       0.591
  YS02164001           JUNCTION      0.00   456.57     0  01:48           0        5.09       0.396
  YS02001647           JUNCTION      0.00   787.77     0  02:41           0        6.41       0.442
  YSB1154              JUNCTION     46.91    46.91     0  01:52        0.18       0.181       0.805
  YSB6556              JUNCTION      0.00    46.64     0  01:52           0       0.182       0.696
  YSB1174              JUNCTION     39.22    39.22     0  01:50       0.134       0.134       0.962
  YSB1171              JUNCTION      0.00    84.02     0  01:52           0       0.322       2.011
  YS02006553           JUNCTION      0.00   717.68     0  03:35           0        7.35       0.213
  YS02006561           JUNCTION      0.00  1084.60     0  01:52           0        11.5       0.008
  YS02006556           JUNCTION      0.00   717.73     0  03:35           0        7.36       0.150
  YS02006558           JUNCTION    590.63  1085.32     0  01:52        4.24        11.6       0.045
  YS02001783           JUNCTION      0.00  1067.22     0  01:52           0        11.5       0.022
  YS02001784           JUNCTION      1.06  1069.53     0  01:52      0.0299        11.6       0.033
  YS02001786           JUNCTION      0.06  1070.14     0  01:52     0.00159        11.6       0.030
  YS02001788           JUNCTION      0.07  1072.08     0  01:52       0.002        11.6       0.017
  YS02001790           JUNCTION      0.15  1063.45     0  01:52     0.00437        11.6       0.010
  YS02001791           JUNCTION      0.00  1063.25     0  01:52           0        11.6       0.011
  YS02001793           JUNCTION      0.00  1063.31     0  01:52           0        11.6      -0.023
  WSC                  OUTFALL       0.00  1349.71     0  02:02           0        22.3       0.000
  JK-storage           STORAGE       0.00  1063.53     0  01:52           0        11.7      -8.380
  CC-storage           STORAGE       0.00  2148.57     0  01:55           0        8.44       0.754
  XR-storage           STORAGE    1054.62  1054.62     0  03:01        15.5        16.1      -0.006
  
  
  **********************
  Node Surcharge Summary
  **********************
  
  Surcharging occurs when water rises above the top of the highest conduit.
  ---------------------------------------------------------------------
                                               Max. Height   Min. Depth
                                   Hours       Above Crown    Below Rim
  Node                 Type      Surcharged         Meters       Meters
  ---------------------------------------------------------------------
  WS02004401           JUNCTION        1.34          0.303        1.357
  WS02004402           JUNCTION        1.37          0.288        1.452
  WS02004403           JUNCTION        1.37          0.265        1.765
  WS02004404           JUNCTION        1.53          0.305        2.475
  WS02004406           JUNCTION        1.47          0.201        2.249
  WS02004413           JUNCTION        0.48          0.031        2.169
  WS02004405           JUNCTION        1.50          0.274        2.526
  WS02006109           JUNCTION        4.91          0.928        0.892
  WS02006110           JUNCTION        2.58          0.627        1.223
  WS02006111           JUNCTION        0.36          0.208        1.662
  WS02006112           JUNCTION        2.96          0.651        1.029
  WS02006113           JUNCTION        0.40          0.486        1.444
  WS02006115           JUNCTION        0.77          0.300        1.950
  WS02006116           JUNCTION        0.83          0.284        2.006
  WS02006230           JUNCTION        2.24          0.893        0.677
  WS02006231           JUNCTION        2.92          0.899        0.631
  WS02006232           JUNCTION        4.93          1.002        0.478
  WS02006234           JUNCTION        4.36          0.871        0.369
  WS02006235           JUNCTION        4.74          0.882        0.408
  WS02006238           JUNCTION        4.80          0.889        0.541
  WS02006240           JUNCTION        4.54          0.734        0.656
  WS02006242           JUNCTION        4.63          0.731        0.089
  WS02006243           JUNCTION        3.95          0.590        0.180
  WS02006245           JUNCTION        3.73          0.511        0.339
  WS02006247           JUNCTION        3.76          0.495        0.265
  WS02006248           JUNCTION        3.29          0.380        0.000
  WS02006249           JUNCTION        3.43          0.390        0.000
  WS02006239           JUNCTION        4.60          0.802        0.488
  WS02006251           JUNCTION        1.05          0.193        0.987
  WS02006252           JUNCTION        3.29          0.370        0.730
  WS02006253           JUNCTION        1.30          0.280        2.200
  WS02006256           JUNCTION        6.80          2.050        0.000
  WS02006228           JUNCTION        4.88          1.102        1.098
  HS02004817           JUNCTION        0.15          0.010        1.730
  YS02001748           JUNCTION        6.04          0.453        0.737
  YS02001751           JUNCTION        6.08          0.619        0.581
  YS02001754           JUNCTION        6.14          0.787        0.363
  YS02001762           JUNCTION        6.19          1.035        0.115
  YS02001765           JUNCTION        6.18          0.982        0.118
  YS02001767           JUNCTION        6.18          0.939        0.091
  YS02001770           JUNCTION        6.18          0.897        0.023
  YS02001774           JUNCTION        6.19          0.983        0.067
  YS02001779           JUNCTION        6.13          0.680        0.000
  YS02001882           JUNCTION        1.79          0.659        0.171
  YS02001884           JUNCTION        1.81          0.693        0.177
  YS02001759           JUNCTION        6.20          1.074        0.136
  YS02001887           JUNCTION        1.86          0.769        0.181
  YS02001890           JUNCTION        1.88          0.760        0.000
  YS02001898           JUNCTION        1.76          0.567        0.173
  YS02001901           JUNCTION        1.83          0.708        0.162
  YS02001904           JUNCTION        1.82          0.661        0.189
  YS02001907           JUNCTION        2.40          0.950        0.000
  YS02001910           JUNCTION        1.92          0.819        0.281
  YS02001915           JUNCTION        1.78          0.672        0.328
  YS02001918           JUNCTION        1.63          0.423        0.387
  YS02001619           JUNCTION        6.09          0.567        0.043
  YS02001629           JUNCTION        6.08          0.470        0.000
  YS02001641           JUNCTION        6.18          0.936        0.164
  YS02001644           JUNCTION        6.18          0.920        0.000
  YS02001652           JUNCTION        6.15          1.049        0.081
  YS02001655           JUNCTION        6.10          1.062        0.138
  YS02001920           JUNCTION        1.65          0.524        0.616
  YS02001923           JUNCTION        0.01          0.098        0.722
  YS02001926           JUNCTION        0.01          0.146        0.754
  YS02001658           JUNCTION        6.05          1.008        0.292
  YS02001661           JUNCTION        0.12          0.882        0.508
  YS02001622           JUNCTION        6.10          0.564        0.056
  YS02001633           JUNCTION        6.17          0.938        0.122
  YS02001649           JUNCTION        6.19          1.050        0.000
  YS02001757           JUNCTION        6.23          1.175        0.035
  YS02001895           JUNCTION        1.77          0.582        0.168
  YS02001625           JUNCTION        6.15          0.780        0.000
  YS02163301           JUNCTION        6.17          0.894        0.136
  YS02163601           JUNCTION        6.20          0.989        0.091
  YS02164001           JUNCTION        6.17          0.920        0.180
  YS02001647           JUNCTION        6.15          0.800        0.100
  YS02006553           JUNCTION        2.44          0.977        0.213
  YS02006561           JUNCTION        1.64          0.279        0.871
  YS02006556           JUNCTION        2.10          0.906        0.444
  YS02006558           JUNCTION        2.07          0.879        0.521
  YS02001783           JUNCTION        1.89          0.664        0.936
  YS02001784           JUNCTION        1.86          0.605        0.885
  YS02001786           JUNCTION        1.77          0.444        0.986
  YS02001788           JUNCTION        1.68          0.308        1.172
  YS02001790           JUNCTION        2.63          0.975        0.182
  YS02001791           JUNCTION        2.74          0.770        1.150
  YS02001793           JUNCTION        3.03          2.600        0.000
  
  
  *********************
  Node Flooding Summary
  *********************
  
  Flooding refers to all water that overflows a node, whether it ponds or not.
  --------------------------------------------------------------------------
                                                             Total   Maximum
                                 Maximum   Time of Max       Flood    Ponded
                        Hours       Rate    Occurrence      Volume     Depth
  Node                 Flooded       LPS   days hr:min    10^6 ltr    Meters
  --------------------------------------------------------------------------
  WS02006248              0.22     60.62      0  01:53       0.024     0.000
  WS02006249              1.14    112.95      0  02:20       0.224     0.000
  WS02006256              4.55    978.40      0  00:00       8.638     0.000
  YS02001779              3.33    716.29      0  02:40       3.645     0.000
  YS02001890              0.78    162.15      0  02:12       0.270     0.000
  YS02001907              1.50    716.48      0  02:16       2.618     0.000
  YS02001629              0.01      2.67      0  01:47       0.000     0.000
  YS02001644              4.96   1552.54      0  02:39      12.168     0.000
  YS02001649              0.02     25.23      0  04:06       0.001     0.000
  YS02001625              2.17    435.43      0  02:16       1.967     0.000
  YS02001793              0.01    287.72      0  04:34       0.000     0.000
  JK-storage              0.59    447.23      0  04:39       0.502     0.000
  XR-storage              4.62    674.60      0  03:01       4.984     0.000
  
  
  **********************
  Storage Volume Summary
  **********************
  
  --------------------------------------------------------------------------------------------------
                         Average     Avg  Evap Exfil       Maximum     Max    Time of Max    Maximum
                          Volume    Pcnt  Pcnt  Pcnt        Volume    Pcnt     Occurrence    Outflow
  Storage Unit           1000 m3    Full  Loss  Loss       1000 m3    Full    days hr:min        LPS
  --------------------------------------------------------------------------------------------------
  JK-storage               0.158      54     0     0         0.291     100       0  04:36     983.00
  CC-storage               3.445      22     0     0         3.991      25       0  02:41     400.00
  XR-storage               0.857      92     0     0         0.926     100       0  02:10     380.00
  
  
  ***********************
  Outfall Loading Summary
  ***********************
  
  ---------------------------------------------------------------------------------------------------------------------------------
                         Flow       Avg       Max       Total         Total         Total         Total         Total         Total
                         Freq      Flow      Flow      Volume           COD            SS            TN            TP         NH4-N
  Outfall Node           Pcnt       LPS       LPS    10^6 ltr            kg            kg            kg            kg            kg
  ---------------------------------------------------------------------------------------------------------------------------------
  WSC                   99.99    876.53   1349.71      22.319      2706.400      4839.434       145.813        16.600        86.719
  ---------------------------------------------------------------------------------------------------------------------------------
  System                99.99    876.53   1349.71      22.319      2706.400      4839.434       145.813        16.600        86.719
  
  
  ********************
  Link Flow Summary
  ********************
  
  -----------------------------------------------------------------------------
                                 Maximum  Time of Max   Maximum    Max/    Max/
                                  |Flow|   Occurrence   |Veloc|    Full    Full
  Link                 Type          LPS  days hr:min     m/sec    Flow   Depth
  -----------------------------------------------------------------------------
  WS02003066WSF200     CONDUIT    957.11     0  01:55      3.01    0.16    0.32
  WS02006287WS02006284 CONDUIT    735.77     0  01:54      2.45    0.34    0.41
  WS02006284WS02006280 CONDUIT    736.12     0  01:54      2.68    0.31    0.38
  WS02006280WS02006229 CONDUIT    736.24     0  01:54      4.16    0.16    0.57
  WS02006229WS02006228 CONDUIT    935.21     0  01:52      1.86    3.10    1.00
  WS02006256WS02006235 CONDUIT    288.60     0  00:00      4.23    3.05    1.00
  WS02006253WS02006251 CONDUIT    167.86     0  01:51      0.72    0.50    1.00
  WS02006252WS02006251 CONDUIT    401.23     0  04:46      3.19    1.47    1.00
  WS02006251WS02006249 CONDUIT    413.76     0  06:49      1.08    1.19    1.00
  WS02006249WS02006248 CONDUIT    405.91     0  05:51      1.05    2.22    1.00
  WS02006248WS02006247 CONDUIT    405.61     0  05:51      1.05    0.88    1.00
  WS02006247WS02006245 CONDUIT    405.51     0  05:51      1.05    3.22    1.00
  WS02006245WS02006243 CONDUIT    405.63     0  05:52      1.05    1.20    1.00
  WS02006243WS02006242 CONDUIT    405.25     0  05:52      1.05    0.87    1.00
  WS02006242WS02006240 CONDUIT    405.87     0  05:52      1.05    1.61    1.00
  WS02006240WS02006239 CONDUIT    405.81     0  05:51      1.05    1.28    1.00
  WS02006239WS02006238 CONDUIT    405.39     0  05:51      1.05    1.30    1.00
  WS02006238WS02006235 CONDUIT    406.63     0  05:52      1.46    0.91    1.00
  WS02006235WS02006234 CONDUIT    522.83     0  06:51      1.36    5.52    1.00
  WS02006234WS02006232 CONDUIT    522.28     0  06:53      1.39    1.06    1.00
  WS02006232WS02006231 CONDUIT    522.46     0  06:53      1.36    1.09    1.00
  WS02006231WS02006230 CONDUIT    522.45     0  07:31      1.36    7.92    1.00
  WS02006230WS02006229 CONDUIT    533.44     0  06:49      1.39   11.87    1.00
  WS02006228WS02006109 CONDUIT    934.92     0  01:52      1.86    4.08    1.00
  WS02006116WS02004401 CONDUIT    968.11     0  01:52      1.23    1.33    1.00
  WS02006115WS02006116 CONDUIT    967.87     0  01:52      1.23    1.24    1.00
  WS02006113WS02006111 CONDUIT    936.44     0  01:52      2.62    1.12    1.00
  WS02006112WS02006115 CONDUIT    967.58     0  01:52      1.23    0.57    1.00
  WS02006111WS02006112 CONDUIT    936.81     0  01:52      1.86    0.45    1.00
  WS02006110WS02006113 CONDUIT    936.22     0  01:52      1.86    0.85    1.00
  WS02006109WS02006110 CONDUIT    936.10     0  01:52      1.86    1.80    1.00
  WS02004411WS02004412 CONDUIT    955.97     0  01:54      1.26    1.36    0.93
  WS02004401WS02004402 CONDUIT    967.94     0  01:52      1.23    1.16    1.00
  WS02004413WS02003067 CONDUIT    956.64     0  01:54      1.57    0.41    0.72
  WS02004412WS02004413 CONDUIT    956.47     0  01:54      1.24    0.64    0.96
  WS02004410WS02004411 CONDUIT    954.83     0  01:54      1.24    1.30    0.95
  WS02004409WS02004410 CONDUIT    955.73     0  01:53      1.24    1.24    0.97
  WS02004407WS02004409 CONDUIT    967.32     0  01:52      1.73    0.34    0.69
  WS02004406WS02004407 CONDUIT    970.41     0  01:52      1.65    0.43    0.70
  WS02004405WS02004406 CONDUIT    970.54     0  01:52      1.24    1.91    1.00
  WS02004404WS02004405 CONDUIT    970.58     0  01:52      1.24    9.51    1.00
  WS02004403WS02004404 CONDUIT    968.70     0  01:52      1.23    0.70    1.00
  WS02004402WS02004403 CONDUIT    968.61     0  01:52      1.23    1.39    1.00
  WS02004139WS02001211 CONDUIT    382.16     0  07:48      0.90    0.48    0.64
  WS02004138WS02004139 CONDUIT    396.19     0  00:00      3.65    0.08    0.47
  WS02003067WS02003066 CONDUIT    956.97     0  01:55      1.67    0.31    0.51
  WS02001213WS02003059 CONDUIT    396.25     0  07:47      0.88    0.65    0.88
  WS02001212WS02001213 CONDUIT    393.38     0  07:47      1.32    0.61    0.56
  WS02001211WS02001212 CONDUIT    391.56     0  07:48      0.78    0.30    0.72
  WS02003072WS02003073 CONDUIT   1347.30     0  02:01      1.97    2.91    0.58
  WS02003069WS02003072 CONDUIT   1346.97     0  02:00      1.82    0.65    0.62
  WS02003060WS02003069 CONDUIT   1346.62     0  02:00      2.03    0.53    0.57
  WS02003059WS02003060 CONDUIT    400.22     0  07:49      0.95    0.26    0.78
  HS02004901HS02004770 CONDUIT     36.85     0  01:52      0.10    0.14    0.54
  HS02004876HS02004881 CONDUIT    139.08     0  01:54      1.26    1.48    0.16
  HS02004870HS02004876 CONDUIT    112.62     0  01:54      0.85    0.07    0.19
  HS02004842HS02004848 CONDUIT     18.18     0  02:06      0.08    0.01    0.34
  HS02004837HS02004842 CONDUIT     18.64     0  02:07      0.42    0.01    0.35
  HS02004830HS02004837 CONDUIT     67.83     0  01:54      0.68    0.07    0.14
  HS02004824HS02004830 CONDUIT     68.04     0  01:56      0.62    0.09    0.18
  HS02004817HS02004824 CONDUIT    136.19     0  01:57      0.32    0.06    0.60
  HS02004770HS02004777 CONDUIT    189.69     0  01:52      0.49    0.35    0.55
  HS02004799HS02004480 CONDUIT    470.63     0  01:53      1.09    0.59    0.62
  HS02004792HS02004799 CONDUIT    430.88     0  01:53      1.22    0.26    0.50
  HS02004788HS02004792 CONDUIT    248.73     0  01:54      1.29    0.16    0.28
  HS02004785HS02004788 CONDUIT    189.53     0  01:53      0.92    1.43    0.30
  HS02004777HS02004785 CONDUIT    189.41     0  01:53      0.59    0.23    0.46
  HS02004480HS02004478 CONDUIT    554.37     0  01:53      1.59    2.33    0.50
  HS02004479HS02004480 CONDUIT     83.72     0  01:53      0.37    0.08    0.59
  HS02004862HS02004870 CONDUIT     86.18     0  01:55      0.82    0.09    0.15
  HS02004848HS02004852 CONDUIT     40.37     0  01:54      0.54    0.05    0.11
  HS02004856HS02004862 CONDUIT     60.18     0  01:54      0.61    0.06    0.14
  HS02004852HS02004856 CONDUIT     40.43     0  01:55      0.35    0.05    0.17
  HS02004802HS02004478 CONDUIT    184.69     0  01:57      0.53    0.16    0.50
  HS02004478WS02006287 CONDUIT    735.65     0  01:54      2.18    0.21    0.38
  HS02004817HS02004807 CONDUIT    136.98     0  01:57      0.26    0.08    0.77
  HS02004807HS02004802 CONDUIT    183.89     0  01:56      0.47    0.35    0.56
  YS02001759YS02001757 CONDUIT    877.33     0  01:57      1.12    0.62    1.00
  YS02001762YS02001759 CONDUIT    434.05     0  01:55      0.55    0.50    1.00
  YS02001765YS02001762 CONDUIT    434.66     0  01:55      0.55    0.41    1.00
  YS02001770YS02001767 CONDUIT    434.32     0  01:55      0.55    1.72    1.00
  YS02001774YS02001770 CONDUIT    716.29     0  02:40      0.91    0.46    1.00
  YS02001779YS02001774 CONDUIT    716.29     0  02:40      0.91    0.36    1.00
  YS02001649YS02001757 CONDUIT   1003.76     0  01:49      1.28    0.61    1.00
  YS02001767YS02001765 CONDUIT    435.27     0  01:55      0.55    0.55    1.00
  YS02006561YS02001783 CONDUIT   1067.22     0  01:52      2.15    0.55    1.00
  YS02001783YS02001784 CONDUIT   1068.47     0  01:52      2.13    1.47    1.00
  YS02001784YS02001785 CONDUIT   1070.08     0  01:52      2.13    2.49    1.00
  YS02001788YS02001790 CONDUIT   1063.30     0  01:52      2.44    0.78    1.00
  YS02001790YS02001791 CONDUIT   1063.25     0  01:52      2.91    1.16    1.00
  YS02001791YS02001793 CONDUIT   1063.31     0  01:52      5.78    0.46    1.00
  YS02001910YS02001907 CONDUIT    659.66     0  01:54      0.84    0.37    1.00
  YS02001786YS02001788 CONDUIT   1072.01     0  01:52      2.31    2.07    1.00
  YS02001915YS02001910 CONDUIT    659.75     0  01:54      0.84    0.33    1.00
  YS02001918YS02001915 CONDUIT    362.59     0  01:54      0.48    0.20    1.00
  YS02001923YS02001920 CONDUIT    357.62     0  01:54      0.82    0.16    1.00
  YS02001926YS02001923 CONDUIT    297.96     0  01:54      0.92    0.43    1.00
  YS02001929YS02001926 CONDUIT    238.87     0  01:54      0.98    0.11    0.96
  YS02001920YS02001918 CONDUIT    361.46     0  01:54      0.77    0.35    1.00
  YS02001629YS02163301 CONDUIT    222.98     0  01:45      0.28    0.27    1.00
  YS02001619YS02001622 CONDUIT    388.90     0  02:16      0.74    0.57    1.00
  YS02001622YS02001625 CONDUIT    388.80     0  02:16      0.50    0.21    1.00
  YS02001625YS02001629 CONDUIT    219.60     0  01:48      0.29    0.10    1.00
  YS02163301YS02001633 CONDUIT    224.82     0  01:45      0.29    0.21    1.00
  YS02163601YS02164001 CONDUIT    456.57     0  01:48      0.58    0.40    1.00
  YS02164001YS02001641 CONDUIT    457.17     0  01:48      0.58    0.62    1.00
  YS02001641YS02001644 CONDUIT    457.00     0  01:48      0.58    1.48    1.00
  YS02001647YS02001649 CONDUIT    787.77     0  02:41      1.00    0.42    1.00
  YS02006553YS02006556 CONDUIT    717.73     0  03:35      0.91    0.61    1.00
  YS02006556YS02006558 CONDUIT    717.83     0  03:35      0.91    0.57    1.00
  YSB6556YSB1171       CONDUIT     46.61     0  01:54      0.14    0.05    0.84
  YS02001907YS02006553 CONDUIT    717.68     0  03:35      0.80    0.84    1.00
  YS02006558YS02006561 CONDUIT   1084.60     0  01:52      3.84    2.40    1.00
  YS02001633YS02163601 CONDUIT    456.63     0  01:48      0.58    0.48    1.00
  YS02001644YS02001647 CONDUIT    787.77     0  02:41      1.00    0.46    1.00
  YS02001745YS02001748 CONDUIT    451.40     0  02:16      1.67    0.17    0.98
  YS02001748YS02001751 CONDUIT    451.48     0  02:16      1.21    0.23    1.00
  YS02001751YS02001754 CONDUIT    452.00     0  02:16      1.02    0.22    1.00
  YS02001754YS02001757 CONDUIT    452.01     0  02:16      0.58    0.18    1.00
  YS02001882YS02001884 CONDUIT     26.65     0  01:49      0.16    0.03    1.00
  YS02001884YS02001887 CONDUIT     45.89     0  01:48      0.12    0.06    1.00
  YS02001890YS02001895 CONDUIT    540.45     0  01:52      0.69    0.25    1.00
  YS02001895YS02001898 CONDUIT    539.16     0  01:52      0.69    0.94    1.00
  YS02001898YS02001901 CONDUIT    542.07     0  01:51      0.69    0.35    1.00
  YS02001901YS02001904 CONDUIT    544.03     0  01:51      0.69    0.84    1.00
  YS02001904YS02001907 CONDUIT    546.43     0  01:51      0.70    0.19    1.00
  YS02001887YS02001890 CONDUIT    677.52     0  02:14      0.86    1.16    1.00
  YS02001652YS02001649 CONDUIT    521.19     0  02:12      0.71    0.26    1.00
  YS02001655YS02001652 CONDUIT    521.05     0  02:12      1.09    0.25    1.00
  YS02001658YS02001655 CONDUIT    520.81     0  02:12      1.41    0.22    1.00
  YS02001661YS02001658 CONDUIT    520.34     0  02:12      1.78    0.20    1.00
  YS02001664YS02001661 CONDUIT    744.50     0  01:58      1.69    0.23    0.77
  YSB1154YSB6556       CONDUIT     46.64     0  01:52      0.15    0.08    0.75
  YSB1174YSB1171       CONDUIT     38.37     0  01:50      0.11    0.06    0.87
  YSB1171HS02004479    CONDUIT     83.76     0  01:53      0.54    0.06    0.70
  HS02004881HS02006253 CONDUIT    153.29     0  01:54      2.62    0.03    0.54
  YS02001793JiankangQianchi CONDUIT   1063.53     0  01:52     16.73    0.08    1.00
  YS02001757CaochengTiaoxuchi CONDUIT   2148.57     0  01:55      3.55    0.94    1.00
  WSF200WS02003060     CONDUIT    957.19     0  01:55      1.97    0.21    0.45
  1                    CONDUIT   1349.71     0  02:02      3.60    0.47    0.48
  CC-Pump-1            PUMP       200.00     0  02:20              1.00
  CC-Pump-2            PUMP       200.00     0  04:30              1.00
  JK-Pump-1            PUMP       300.00     0  00:00              1.00
  JK-Pump-2            PUMP       683.00     0  00:00              1.00
  XR-Pump-1            PUMP        95.00     0  00:00              1.00
  XR-Pump-2            PUMP        95.00     0  00:00              1.00
  XR-Pump-3            PUMP        95.00     0  00:00              1.00
  XR-Pump-4            PUMP        95.00     0  00:00              1.00
  
  
  ***************************
  Flow Classification Summary
  ***************************
  
  -------------------------------------------------------------------------------------
                      Adjusted    ---------- Fraction of Time in Flow Class ---------- 
                       /Actual         Up    Down  Sub   Sup   Up    Down  Norm  Inlet 
  Conduit               Length    Dry  Dry   Dry   Crit  Crit  Crit  Crit  Ltd   Ctrl  
  -------------------------------------------------------------------------------------
  WS02003066WSF200        1.00   0.01  0.04  0.00  0.00  0.94  0.00  0.00  0.41  0.00
  WS02006287WS02006284    1.00   0.02  0.01  0.00  0.60  0.36  0.00  0.00  0.63  0.00
  WS02006284WS02006280    1.00   0.03  0.00  0.00  0.00  0.00  0.00  0.97  0.00  0.00
  WS02006280WS02006229    1.00   0.03  0.00  0.00  0.02  0.03  0.00  0.92  0.02  0.00
  WS02006229WS02006228    1.00   0.00  0.00  0.00  1.00  0.00  0.00  0.00  0.00  0.00
  WS02006256WS02006235    1.00   0.00  0.00  0.00  1.00  0.00  0.00  0.00  0.00  0.00
  WS02006253WS02006251    1.00   0.01  0.01  0.00  0.97  0.00  0.01  0.00  0.00  0.00
  WS02006252WS02006251    1.00   0.08  0.00  0.00  0.21  0.00  0.71  0.00  0.00  0.00
  WS02006251WS02006249    1.00   0.00  0.00  0.00  1.00  0.00  0.00  0.00  0.18  0.00
  WS02006249WS02006248    1.00   0.00  0.01  0.00  0.95  0.00  0.04  0.00  0.00  0.00
  WS02006248WS02006247    1.00   0.01  0.00  0.00  0.98  0.00  0.00  0.01  0.04  0.00
  WS02006247WS02006245    1.00   0.01  0.00  0.00  0.97  0.00  0.00  0.02  0.00  0.00
  WS02006245WS02006243    1.00   0.00  0.00  0.00  0.96  0.00  0.00  0.03  0.01  0.00
  WS02006243WS02006242    1.00   0.00  0.00  0.00  0.99  0.00  0.00  0.00  0.18  0.00
  WS02006242WS02006240    1.00   0.00  0.00  0.00  0.99  0.00  0.00  0.00  0.00  0.00
  WS02006240WS02006239    1.00   0.00  0.00  0.00  0.96  0.00  0.00  0.04  0.01  0.00
  WS02006239WS02006238    1.00   0.00  0.00  0.00  1.00  0.00  0.00  0.00  0.12  0.00
  WS02006238WS02006235    1.00   0.00  0.00  0.00  1.00  0.00  0.00  0.00  0.00  0.00
  WS02006235WS02006234    1.00   0.00  0.00  0.00  0.97  0.00  0.03  0.00  0.00  0.00
  WS02006234WS02006232    1.00   0.00  0.00  0.00  1.00  0.00  0.00  0.00  0.08  0.00
  WS02006232WS02006231    1.00   0.00  0.00  0.00  1.00  0.00  0.00  0.00  0.00  0.00
  WS02006231WS02006230    1.00   0.00  0.00  0.00  0.82  0.00  0.17  0.00  0.00  0.00
  WS02006230WS02006229    1.00   0.00  0.00  0.00  1.00  0.00  0.00  0.00  0.01  0.00
  WS02006228WS02006109    1.00   0.00  0.00  0.00  1.00  0.00  0.00  0.00  0.00  0.00
  WS02006116WS02004401    1.00   0.01  0.00  0.00  0.99  0.00  0.00  0.00  0.01  0.00
  WS02006115WS02006116    1.00   0.01  0.00  0.00  0.98  0.00  0.00  0.01  0.01  0.00
  WS02006113WS02006111    1.00   0.00  0.00  0.00  0.06  0.93  0.00  0.00  0.12  0.00
  WS02006112WS02006115    1.00   0.01  0.00  0.00  0.99  0.00  0.00  0.00  0.00  0.00
  WS02006111WS02006112    1.00   0.01  0.00  0.00  0.99  0.00  0.00  0.00  0.79  0.00
  WS02006110WS02006113    1.00   0.00  0.00  0.00  1.00  0.00  0.00  0.00  0.00  0.00
  WS02006109WS02006110    1.00   0.00  0.00  0.00  1.00  0.00  0.00  0.00  0.00  0.00
  WS02004411WS02004412    1.00   0.04  0.00  0.00  0.96  0.00  0.00  0.00  0.00  0.00
  WS02004401WS02004402    1.00   0.01  0.00  0.00  0.99  0.00  0.00  0.00  0.01  0.00
  WS02004413WS02003067    1.00   0.05  0.01  0.00  0.00  0.00  0.95  0.00  0.00  0.00
  WS02004412WS02004413    1.00   0.04  0.00  0.00  0.95  0.00  0.00  0.00  0.00  0.00
  WS02004410WS02004411    1.00   0.04  0.00  0.00  0.96  0.00  0.00  0.00  0.00  0.00
  WS02004409WS02004410    1.00   0.04  0.00  0.00  0.96  0.00  0.00  0.00  0.00  0.00
  WS02004407WS02004409    1.00   0.04  0.00  0.00  0.95  0.01  0.00  0.00  0.81  0.00
  WS02004406WS02004407    1.00   0.00  0.04  0.00  0.96  0.00  0.00  0.00  0.00  0.00
  WS02004405WS02004406    1.00   0.00  0.00  0.00  1.00  0.00  0.00  0.00  0.02  0.00
  WS02004404WS02004405    1.00   0.00  0.00  0.00  1.00  0.00  0.00  0.00  0.00  0.00
  WS02004403WS02004404    1.00   0.00  0.01  0.00  0.99  0.00  0.00  0.00  0.02  0.00
  WS02004402WS02004403    1.00   0.01  0.00  0.00  0.99  0.00  0.00  0.00  0.00  0.00
  WS02004139WS02001211    1.00   0.00  0.00  0.00  1.00  0.00  0.00  0.00  0.00  0.00
  WS02004138WS02004139    1.00   0.00  0.00  0.00  1.00  0.00  0.00  0.00  1.00  0.00
  WS02003067WS02003066    1.00   0.05  0.00  0.00  0.94  0.00  0.00  0.00  0.00  0.00
  WS02001213WS02003059    1.00   0.00  0.00  0.00  1.00  0.00  0.00  0.00  0.00  0.00
  WS02001212WS02001213    1.00   0.00  0.00  0.00  0.94  0.00  0.06  0.00  0.00  0.00
  WS02001211WS02001212    1.00   0.00  0.00  0.00  1.00  0.00  0.00  0.00  0.00  0.00
  WS02003072WS02003073    1.00   0.00  0.00  0.00  0.00  0.00  0.00  1.00  0.00  0.00
  WS02003069WS02003072    1.00   0.00  0.00  0.00  1.00  0.00  0.00  0.00  0.06  0.00
  WS02003060WS02003069    1.00   0.00  0.00  0.00  0.99  0.01  0.00  0.00  0.05  0.00
  WS02003059WS02003060    1.00   0.00  0.00  0.00  1.00  0.00  0.00  0.00  0.00  0.00
  HS02004901HS02004770    1.00   0.03  0.00  0.00  0.97  0.00  0.00  0.00  0.00  0.00
  HS02004876HS02004881    1.00   0.01  0.00  0.00  0.92  0.08  0.00  0.00  0.00  0.00
  HS02004870HS02004876    1.00   0.00  0.00  0.00  1.00  0.00  0.00  0.00  0.95  0.00
  HS02004842HS02004848    1.00   0.00  0.03  0.00  0.97  0.00  0.00  0.00  0.56  0.00
  HS02004837HS02004842    1.00   0.00  0.00  0.00  1.00  0.00  0.00  0.00  0.11  0.00
  HS02004830HS02004837    1.00   0.00  0.00  0.00  1.00  0.00  0.00  0.00  0.99  0.00
  HS02004824HS02004830    1.00   0.00  0.00  0.00  1.00  0.00  0.00  0.00  0.03  0.00
  HS02004817HS02004824    1.00   0.00  0.00  0.00  1.00  0.00  0.00  0.00  0.92  0.00
  HS02004770HS02004777    1.00   0.00  0.03  0.00  0.97  0.00  0.00  0.00  0.02  0.00
  HS02004799HS02004480    1.00   0.00  0.01  0.00  0.97  0.00  0.02  0.00  0.00  0.00
  HS02004792HS02004799    1.00   0.00  0.00  0.00  1.00  0.00  0.00  0.00  0.98  0.00
  HS02004788HS02004792    1.00   0.00  0.00  0.00  1.00  0.00  0.00  0.00  0.98  0.00
  HS02004785HS02004788    1.00   0.00  0.00  0.00  1.00  0.00  0.00  0.00  0.00  0.00
  HS02004777HS02004785    1.00   0.00  0.00  0.00  1.00  0.00  0.00  0.00  0.11  0.00
  HS02004480HS02004478    1.00   0.03  0.00  0.00  0.67  0.00  0.00  0.30  0.00  0.00
  HS02004479HS02004480    1.00   0.01  0.00  0.00  0.99  0.00  0.00  0.00  0.11  0.00
  HS02004862HS02004870    1.00   0.00  0.00  0.00  1.00  0.00  0.00  0.00  0.03  0.00
  HS02004848HS02004852    1.00   0.03  0.00  0.00  0.97  0.00  0.00  0.00  0.79  0.00
  HS02004856HS02004862    1.00   0.00  0.03  0.00  0.97  0.00  0.00  0.00  0.84  0.00
  HS02004852HS02004856    1.00   0.03  0.00  0.00  0.97  0.00  0.00  0.00  0.77  0.00
  HS02004802HS02004478    1.00   0.03  0.00  0.00  0.97  0.00  0.00  0.00  0.02  0.00
  HS02004478WS02006287    1.00   0.03  0.00  0.00  0.74  0.22  0.00  0.00  0.62  0.00
  HS02004817HS02004807    1.00   0.00  0.03  0.00  0.97  0.00  0.00  0.00  0.01  0.00
  HS02004807HS02004802    1.00   0.03  0.00  0.00  0.97  0.00  0.00  0.00  0.00  0.00
  YS02001759YS02001757    1.00   0.00  0.00  0.00  1.00  0.00  0.00  0.00  0.15  0.00
  YS02001762YS02001759    1.00   0.00  0.00  0.00  1.00  0.00  0.00  0.00  0.02  0.00
  YS02001765YS02001762    1.00   0.00  0.00  0.00  1.00  0.00  0.00  0.00  0.13  0.00
  YS02001770YS02001767    1.00   0.00  0.00  0.00  1.00  0.00  0.00  0.00  0.00  0.00
  YS02001774YS02001770    1.00   0.00  0.03  0.00  0.97  0.00  0.00  0.00  0.02  0.00
  YS02001779YS02001774    1.00   0.00  0.00  0.00  1.00  0.00  0.00  0.00  0.17  0.00
  YS02001649YS02001757    1.00   0.00  0.00  0.00  1.00  0.00  0.00  0.00  0.15  0.00
  YS02001767YS02001765    1.00   0.00  0.00  0.00  1.00  0.00  0.00  0.00  0.00  0.00
  YS02006561YS02001783    1.00   0.04  0.00  0.00  0.43  0.53  0.00  0.00  0.44  0.00
  YS02001783YS02001784    1.00   0.00  0.04  0.00  0.96  0.00  0.00  0.00  0.00  0.00
  YS02001784YS02001785    1.00   0.00  0.00  0.00  1.00  0.00  0.00  0.00  0.16  0.00
  YS02001788YS02001790    1.00   0.00  0.00  0.00  0.47  0.53  0.00  0.00  0.36  0.00
  YS02001790YS02001791    1.00   0.00  0.00  0.00  0.44  0.56  0.00  0.00  0.40  0.00
  YS02001791YS02001793    1.00   0.00  0.00  0.00  0.47  0.53  0.00  0.00  0.02  0.00
  YS02001910YS02001907    1.00   0.00  0.00  0.00  0.99  0.00  0.00  0.01  0.12  0.00
  YS02001786YS02001788    1.00   0.00  0.00  0.00  0.44  0.56  0.00  0.00  0.00  0.00
  YS02001915YS02001910    1.00   0.00  0.00  0.00  0.99  0.01  0.00  0.00  0.13  0.00
  YS02001918YS02001915    1.00   0.00  0.00  0.00  0.99  0.00  0.00  0.00  0.51  0.00
  YS02001923YS02001920    1.00   0.00  0.00  0.00  1.00  0.00  0.00  0.00  0.74  0.00
  YS02001926YS02001923    1.00   0.00  0.02  0.00  0.26  0.00  0.72  0.00  0.00  0.00
  YS02001929YS02001926    1.00   0.00  0.03  0.00  0.97  0.00  0.00  0.00  0.65  0.00
  YS02001920YS02001918    1.00   0.00  0.00  0.00  1.00  0.00  0.00  0.00  0.00  0.00
  YS02001629YS02163301    1.00   0.03  0.00  0.00  0.97  0.00  0.00  0.00  0.00  0.00
  YS02001619YS02001622    1.00   0.03  0.00  0.00  0.97  0.00  0.00  0.00  0.00  0.00
  YS02001622YS02001625    1.00   0.03  0.00  0.00  0.97  0.00  0.00  0.00  0.03  0.00
  YS02001625YS02001629    1.00   0.03  0.01  0.00  0.95  0.00  0.01  0.00  0.00  0.00
  YS02163301YS02001633    1.00   0.00  0.03  0.00  0.97  0.00  0.00  0.00  0.00  0.00
  YS02163601YS02164001    1.00   0.00  0.02  0.00  0.98  0.00  0.00  0.00  0.00  0.00
  YS02164001YS02001641    1.00   0.00  0.02  0.00  0.98  0.00  0.00  0.00  0.06  0.00
  YS02001641YS02001644    1.00   0.00  0.00  0.00  1.00  0.00  0.00  0.00  0.00  0.00
  YS02001647YS02001649    1.00   0.00  0.03  0.00  0.96  0.00  0.00  0.00  0.01  0.00
  YS02006553YS02006556    1.00   0.00  0.00  0.00  1.00  0.00  0.00  0.00  0.03  0.00
  YS02006556YS02006558    1.00   0.00  0.00  0.00  1.00  0.00  0.00  0.00  0.00  0.00
  YSB6556YSB1171          1.00   0.01  0.02  0.00  0.97  0.00  0.00  0.00  0.00  0.00
  YS02001907YS02006553    1.00   0.00  0.01  0.00  0.99  0.00  0.00  0.00  0.00  0.00
  YS02006558YS02006561    1.00   0.04  0.00  0.00  0.26  0.70  0.00  0.00  0.44  0.00
  YS02001633YS02163601    1.00   0.00  0.00  0.00  1.00  0.00  0.00  0.00  0.15  0.00
  YS02001644YS02001647    1.00   0.00  0.04  0.00  0.96  0.00  0.00  0.00  0.00  0.00
  YS02001745YS02001748    1.00   0.00  0.00  0.00  0.94  0.00  0.00  0.06  0.01  0.00
  YS02001748YS02001751    1.00   0.00  0.00  0.00  0.98  0.02  0.00  0.00  0.14  0.00
  YS02001751YS02001754    1.00   0.00  0.00  0.00  0.96  0.00  0.00  0.04  0.01  0.00
  YS02001754YS02001757    1.00   0.00  0.00  0.00  1.00  0.00  0.00  0.00  0.17  0.00
  YS02001882YS02001884    1.00   0.03  0.00  0.00  0.97  0.00  0.00  0.00  0.00  0.00
  YS02001884YS02001887    1.00   0.01  0.01  0.00  0.97  0.00  0.00  0.00  0.00  0.00
  YS02001890YS02001895    1.00   0.00  0.03  0.00  0.97  0.00  0.00  0.00  0.00  0.00
  YS02001895YS02001898    1.00   0.03  0.00  0.00  0.96  0.00  0.01  0.00  0.00  0.00
  YS02001898YS02001901    1.00   0.03  0.00  0.00  0.97  0.00  0.00  0.00  0.01  0.00
  YS02001901YS02001904    1.00   0.03  0.00  0.00  0.97  0.00  0.00  0.00  0.00  0.00
  YS02001904YS02001907    1.00   0.00  0.03  0.00  0.97  0.00  0.00  0.00  0.00  0.00
  YS02001887YS02001890    1.00   0.00  0.00  0.00  0.99  0.00  0.01  0.00  0.00  0.00
  YS02001652YS02001649    1.00   0.00  0.00  0.00  1.00  0.00  0.00  0.00  0.15  0.00
  YS02001655YS02001652    1.00   0.00  0.00  0.00  0.96  0.00  0.00  0.04  0.01  0.00
  YS02001658YS02001655    1.00   0.00  0.03  0.00  0.95  0.02  0.00  0.00  0.02  0.00
  YS02001661YS02001658    1.00   0.03  0.00  0.00  0.94  0.03  0.00  0.00  0.01  0.00
  YS02001664YS02001661    1.00   0.03  0.00  0.00  0.95  0.03  0.00  0.00  0.10  0.00
  YSB1154YSB6556          1.00   0.03  0.00  0.00  0.97  0.00  0.00  0.00  0.01  0.00
  YSB1174YSB1171          1.00   0.01  0.01  0.00  0.98  0.00  0.00  0.00  0.00  0.00
  YSB1171HS02004479       1.00   0.01  0.00  0.00  0.99  0.00  0.00  0.00  0.10  0.00
  HS02004881HS02006253    1.00   0.01  0.00  0.00  0.88  0.00  0.00  0.11  0.71  0.00
  YS02001793JiankangQianchi    1.00   0.00  0.00  0.00  0.69  0.31  0.00  0.00  0.31  0.00
  YS02001757CaochengTiaoxuchi    1.00   0.00  0.05  0.00  0.93  0.02  0.00  0.00  0.00  0.00
  WSF200WS02003060        1.00   0.00  0.01  0.00  0.99  0.00  0.00  0.00  0.22  0.00
  1                       1.00   0.00  0.00  0.00  0.00  1.00  0.00  0.00  0.58  0.00
  
  
  *************************
  Conduit Surcharge Summary
  *************************
  
  ----------------------------------------------------------------------------
                                                           Hours        Hours 
                         --------- Hours Full --------   Above Full   Capacity
  Conduit                Both Ends  Upstream  Dnstream   Normal Flow   Limited
  ----------------------------------------------------------------------------
  WS02006229WS02006228        4.88      4.94      4.88      5.58         4.88
  WS02006256WS02006235        6.27      6.27      6.80      4.85         0.01
  WS02006253WS02006251        3.20      3.20      3.35      0.01         0.01
  WS02006252WS02006251        1.78      1.78      3.29      1.78         0.01
  WS02006251WS02006249        3.24      3.24      3.43      0.98         0.94
  WS02006249WS02006248        3.29      3.29      3.43      4.87         0.01
  WS02006248WS02006247        3.40      3.40      3.76      0.01         0.01
  WS02006247WS02006245        3.73      3.80      3.73      5.11         3.46
  WS02006245WS02006243        3.79      3.79      3.95      0.72         0.79
  WS02006243WS02006242        4.04      4.04      4.63      0.01         0.01
  WS02006242WS02006240        4.54      4.54      4.71      2.29         0.01
  WS02006240WS02006239        4.56      4.57      4.60      1.25         1.07
  WS02006239WS02006238        4.72      4.74      4.80      1.36         1.18
  WS02006238WS02006235        4.77      4.77      4.88      0.01         0.02
  WS02006235WS02006234        4.36      4.36      4.74      6.19         0.02
  WS02006234WS02006232        4.63      4.63      4.92      0.66         0.64
  WS02006232WS02006231        2.92      2.92      4.92      0.82         0.01
  WS02006231WS02006230        2.24      2.24      2.99      6.16         0.01
[...]
  YS02001779YS02001774        6.13      6.13      6.19      0.01         0.01
  YS02001649YS02001757        6.19      6.19      6.23      0.01         0.01
  YS02001767YS02001765        6.18      6.18      6.18      0.01         0.01
  YS02006561YS02001783        1.64      1.64      1.89      0.01         0.01
  YS02001783YS02001784        1.86      1.89      1.86      2.16         1.86
  YS02001784YS02001785        1.77      1.86      1.77      2.88         1.77
  YS02001788YS02001790        1.68      1.68      2.63      0.01         0.01
  YS02001790YS02001791        2.63      2.63      2.74      1.84         1.82
  YS02001791YS02001793        2.74      2.74      3.12      0.01         0.01
  YS02001910YS02001907        1.92      1.92      2.40      0.01         0.01
  YS02001786YS02001788        1.68      1.77      1.68      2.54         1.68
  YS02001915YS02001910        1.78      1.78      1.92      0.01         0.01
  YS02001918YS02001915        1.63      1.63      1.78      0.01         0.01
  YS02001923YS02001920        1.47      1.47      1.65      0.01         0.01
  YS02001926YS02001923        0.01      0.01      0.01      0.01         0.01
  YS02001929YS02001926        0.01      0.01      0.01      0.01         0.01
  YS02001920YS02001918        1.63      1.63      1.65      0.01         0.01
  YS02001629YS02163301        6.16      6.16      6.17      0.01         0.01
  YS02001619YS02001622        6.09      6.09      6.10      0.01         0.02
  YS02001622YS02001625        6.10      6.10      6.15      0.01         0.01
  YS02001625YS02001629        6.08      6.08      6.15      0.01         0.01
  YS02163301YS02001633        6.17      6.17      6.18      0.01         0.01
  YS02163601YS02164001        6.17      6.17      6.20      0.01         0.01
  YS02164001YS02001641        6.17      6.17      6.18      0.01         0.02
  YS02001641YS02001644        6.18      6.18      6.18      2.38         2.47
  YS02001647YS02001649        6.15      6.15      6.19      0.01         0.01
  YS02006553YS02006556        2.10      2.10      2.44      0.01         0.01
  YS02006556YS02006558        2.22      2.22      2.51      0.01         0.01
  YSB6556YSB1171              0.01      0.01      0.30      0.01         0.01
  YS02001907YS02006553        2.93      2.93      3.16      0.01         0.01
  YS02006558YS02006561        1.74      2.07      1.74      2.78         1.74
  YS02001633YS02163601        6.17      6.17      6.20      0.01         0.01
  YS02001644YS02001647        6.15      6.15      6.18      0.01         0.01
  YS02001745YS02001748        0.01      0.01      6.04      0.01         0.01
  YS02001748YS02001751        6.05      6.05      6.08      0.01         0.01
  YS02001751YS02001754        6.08      6.08      6.14      0.01         0.01
  YS02001754YS02001757        6.15      6.15      6.23      0.01         0.01
  YS02001882YS02001884        1.79      1.79      1.81      0.01         0.01
  YS02001884YS02001887        1.84      1.84      1.86      0.01         0.01
  YS02001890YS02001895        1.77      1.77      1.94      0.01         0.01
  YS02001895YS02001898        1.76      1.76      1.77      0.01         0.01
  YS02001898YS02001901        1.77      1.77      1.83      0.01         0.01
  YS02001901YS02001904        1.82      1.82      1.83      0.01         0.01
  YS02001904YS02001907        1.82      1.82      2.47      0.01         0.01
  YS02001887YS02001890        1.88      1.88      1.91      0.52         0.01
  YS02001652YS02001649        6.16      6.16      6.19      0.01         0.01
  YS02001655YS02001652        6.10      6.10      6.15      0.01         0.01
  YS02001658YS02001655        6.05      6.05      6.10      0.01         0.01
  YS02001661YS02001658        0.11      0.11      6.05      0.01         0.01
  YS02001664YS02001661        0.01      0.01      1.69      0.01         0.01
  HS02004881HS02006253        0.01      0.01      1.30      0.01         0.01
  YS02001793JiankangQianchi        3.02      3.02      4.29      0.01         0.01
  YS02001757CaochengTiaoxuchi        5.75      5.75      6.23      0.01         0.01
  
  
  ***************
  Pumping Summary
  ***************
  
  ---------------------------------------------------------------------------------------------------------
                                                  Min       Avg       Max     Total     Power    % Time Off
                        Percent   Number of      Flow      Flow      Flow    Volume     Usage    Pump Curve
  Pump                 Utilized   Start-Ups       LPS       LPS       LPS  10^6 ltr     Kw-hr    Low   High
  ---------------------------------------------------------------------------------------------------------
  CC-Pump-1               68.08           2      0.00    194.09    200.00     3.660      3.39    0.0    0.0
  CC-Pump-2               31.91           5      0.00     93.24    200.00     1.080      1.39    0.0    0.0
  JK-Pump-1               68.08           4      0.00    237.57    300.00     4.438     58.02    0.0    0.0
  JK-Pump-2               61.70           4      0.00    453.03    683.00     7.782     92.12    0.0   97.8
  XR-Pump-1               97.87           2      0.00     94.56     95.00     2.565     20.93    0.0    0.0
  XR-Pump-2               97.87           2      0.00     94.56     95.00     2.565     20.93    0.0    0.0
  XR-Pump-3               97.87           2      0.00     94.56     95.00     2.565     20.93    0.0    0.0
  XR-Pump-4               97.87           2      0.00     94.56     95.00     2.565     20.93    0.0    0.0
  
  
  ***************************
  Link Pollutant Load Summary
  ***************************
  
  ------------------------------------------------------------------------------------------
                                 COD            SS            TN            TP         NH4-N
  Link                            kg            kg            kg            kg            kg
  ------------------------------------------------------------------------------------------
  WS02003066WSF200          1196.022      2297.521        28.405         2.356        14.599
  WS02006287WS02006284       438.080       854.525        12.587         1.181         6.763
  WS02006284WS02006280       438.579       855.326        12.634         1.187         6.793
  WS02006280WS02006229       438.583       855.374        12.633         1.187         6.792
  WS02006229WS02006228      1193.600      2292.676        27.838         2.274        14.230
  WS02006256WS02006235       247.967       465.921         5.285         0.400         2.642
  WS02006253WS02006251        84.353       169.304         1.831         0.137         0.905
  WS02006252WS02006251       475.595       906.382         9.148         0.626         4.405
  WS02006251WS02006249       551.662      1060.094        10.823         0.753         5.237
  WS02006249WS02006248       521.816       999.762        10.243         0.712         4.957
  WS02006248WS02006247       518.065       991.858        10.174         0.707         4.925
  WS02006247WS02006245       518.227       992.299        10.176         0.707         4.925
  WS02006245WS02006243       518.749       993.522        10.183         0.708         4.928
  WS02006243WS02006242       519.199       994.446        10.196         0.709         4.936
  WS02006242WS02006240       518.946       993.846        10.199         0.710         4.938
  WS02006240WS02006239       518.940       993.536        10.214         0.712         4.948
  WS02006239WS02006238       518.747       992.728        10.232         0.714         4.961
  WS02006238WS02006235       518.215       991.380        10.232         0.715         4.963
  WS02006235WS02006234       759.297      1445.178        15.313         1.097         7.494
  WS02006234WS02006232       758.533      1443.801        15.296         1.095         7.485
  WS02006232WS02006231       757.687      1442.242        15.277         1.094         7.476
  WS02006231WS02006230       757.210      1441.361        15.270         1.094         7.473
  WS02006230WS02006229       757.404      1441.740        15.284         1.095         7.481
  WS02006228WS02006109      1192.209      2290.164        27.798         2.271        14.209
  WS02006116WS02004401      1209.656      2322.653        28.702         2.378        14.746
  WS02006115WS02006116      1211.142      2325.370        28.740         2.381        14.766
  WS02006113WS02006111      1197.146      2297.405        28.512         2.364        14.664
  WS02006112WS02006115      1212.642      2328.108        28.785         2.385        14.791
  WS02006111WS02006112      1196.463      2296.073        28.496         2.362        14.655
  WS02006110WS02006113      1197.829      2298.599        28.533         2.366        14.675
  WS02006109WS02006110      1199.191      2301.023        28.578         2.370        14.700
  WS02004411WS02004412      1199.756      2304.326        28.524         2.368        14.664
  WS02004401WS02004402      1208.211      2320.017        28.659         2.374        14.723
  WS02004413WS02003067      1196.955      2299.267        28.424         2.358        14.608
  WS02004412WS02004413      1198.413      2301.869        28.488         2.365        14.645
  WS02004410WS02004411      1200.898      2306.421        28.552         2.370        14.678
  WS02004409WS02004410      1202.005      2308.445        28.582         2.372        14.695
  WS02004407WS02004409      1202.998      2310.261        28.604         2.374        14.706
  WS02004406WS02004407      1203.358      2310.914        28.607         2.374        14.707
  WS02004405WS02004406      1205.010      2313.845        28.677         2.381        14.746
  WS02004404WS02004405      1206.153      2316.019        28.676         2.379        14.742
  WS02004403WS02004404      1205.790      2315.605        28.590         2.368        14.686
  WS02004402WS02004403      1206.925      2317.676        28.624         2.371        14.705
  WS02004139WS02001211      1371.940      2324.447       103.052        12.433        63.102
  WS02004138WS02004139      1378.189      2334.989       103.516        12.489        63.386
  WS02003067WS02003066      1196.251      2297.946        28.412         2.357        14.603
  WS02001213WS02003059      1404.865      2375.946       106.507        12.869        65.275
  WS02001212WS02001213      1413.909      2391.065       107.216        12.955        65.710
  WS02001211WS02001212      1416.193      2394.800       107.413        12.980        65.833
  WS02003072WS02003073      2699.896      4830.256       144.860        16.476        86.110
  WS02003069WS02003072      2705.327      4839.188       145.312        16.532        86.389
  WS02003060WS02003069      2708.171      4844.200       145.458        16.548        86.475
  WS02003059WS02003060      1401.701      2370.528       106.292        12.844        65.144
  HS02004901HS02004770        19.398        38.440         0.369         0.028         0.174
  HS02004876HS02004881        64.840       131.151         1.382         0.100         0.674
  HS02004870HS02004876        49.299        99.615         1.094         0.080         0.537
  HS02004842HS02004848         9.278        18.136         0.191         0.013         0.089
  HS02004837HS02004842        13.925        25.524         0.662         0.072         0.384
  HS02004830HS02004837        81.308       145.731         4.858         0.568         2.931
  HS02004824HS02004830        82.101       147.036         4.931         0.577         2.976
  HS02004817HS02004824       118.564       221.804         5.667         0.624         3.333
  HS02004770HS02004777        73.683       147.822         1.507         0.104         0.700
  HS02004799HS02004480       235.078       460.631         5.679         0.484         2.882
  HS02004792HS02004799       214.139       417.327         5.330         0.464         2.722
  HS02004788HS02004792       116.313       227.338         3.333         0.303         1.755
  HS02004785HS02004788        75.100       150.089         1.654         0.123         0.793
  HS02004777HS02004785        74.430       149.015         1.592         0.115         0.755
  HS02004480HS02004478       294.417       579.915         6.704         0.559         3.370
  HS02004479HS02004480        62.979       125.162         1.335         0.113         0.681
  HS02004862HS02004870        37.530        74.846         0.862         0.066         0.425
  HS02004848HS02004852        15.821        31.380         0.320         0.022         0.149
  HS02004856HS02004862        25.850        52.197         0.514         0.035         0.242
  HS02004852HS02004856        15.835        31.403         0.320         0.022         0.149
  HS02004802HS02004478       144.592       276.103         5.948         0.629         3.432
  HS02004478WS02006287       438.229       854.740        12.603         1.183         6.773
  HS02004817HS02004807       117.199       219.650         5.526         0.607         3.245
  HS02004807HS02004802       144.755       276.351         5.979         0.634         3.453
  YS02001759YS02001757       453.601       856.429         8.889         0.621         4.334
  YS02001762YS02001759       236.950       446.487         4.843         0.341         2.381
  YS02001765YS02001762       238.014       449.530         4.879         0.344         2.401
  YS02001770YS02001767       241.136       458.565         4.774         0.324         2.321
  YS02001774YS02001770       436.175       857.599         8.384         0.563         4.055
  YS02001779YS02001774       435.436       856.208         8.450         0.574         4.102
  YS02001649YS02001757       432.015       803.774         8.580         0.593         4.128
  YS02001767YS02001765       239.838       454.071         4.925         0.348         2.425
  YS02006561YS02001783      1272.373      2402.754        26.214         1.935        12.971
  YS02001783YS02001784      1272.210      2402.472        26.209         1.934        12.968
  YS02001784YS02001785      1279.530      2414.195        26.921         2.024        13.413
  YS02001788YS02001790      1280.084      2415.055        26.992         2.033        13.459
  YS02001790YS02001791      1281.112      2416.696        27.092         2.045        13.521
  YS02001791YS02001793      1280.962      2416.401        27.087         2.045        13.519
  YS02001910YS02001907       564.077      1065.172        12.707         0.937         6.411
  YS02001786YS02001788      1279.734      2414.534        26.949         2.027        13.431
  YS02001915YS02001910       564.217      1065.403        12.666         0.930         6.383
  YS02001918YS02001915       276.571       501.411         6.823         0.587         3.583
  YS02001923YS02001920       252.295       460.275         4.811         0.341         2.338
  YS02001926YS02001923       249.422       455.215         4.693         0.329         2.270
  YS02001929YS02001926       247.612       452.054         4.617         0.321         2.226
  YS02001920YS02001918       273.187       494.205         6.743         0.581         3.543
  YS02001629YS02163301        89.703       159.360         1.894         0.125         0.888
  YS02001619YS02001622       259.363       485.198         5.243         0.348         2.461
  YS02001622YS02001625       258.410       483.706         5.219         0.346         2.450
  YS02001625YS02001629        86.769       153.539         1.849         0.121         0.865
  YS02163301YS02001633        94.532       168.833         1.971         0.131         0.927
  YS02163601YS02164001       529.048       976.539        10.165         0.735         4.886
  YS02164001YS02001641       528.922       976.309        10.152         0.733         4.878
  YS02001641YS02001644       529.948       978.027        10.165         0.734         4.883
  YS02001647YS02001649       584.528      1095.306        11.565         0.807         5.524
  YS02006553YS02006556       791.498      1475.981        16.784         1.270         8.403
  YS02006556YS02006558       791.643      1476.244        16.750         1.265         8.379
  YSB6556YSB1171              36.520        72.731         0.718         0.058         0.359
  YS02001907YS02006553       791.539      1476.077        16.813         1.274         8.422
  YS02006558YS02006561      1272.381      2402.770        26.214         1.935        12.971
  YS02001633YS02163601       529.660       977.511        10.142         0.730         4.868
  YS02001644YS02001647       592.109      1109.797        11.688         0.817         5.582
  YS02001745YS02001748       354.031       679.894         6.988         0.437         3.357
  YS02001748YS02001751       353.335       678.710         6.995         0.440         3.365
  YS02001751YS02001754       352.414       677.194         6.980         0.440         3.359
  YS02001754YS02001757       353.239       678.429         7.147         0.462         3.467
  YS02001882YS02001884         4.576         8.155         0.087         0.007         0.043
  YS02001884YS02001887         7.593        13.720         0.143         0.011         0.071
  YS02001890YS02001895       615.348      1176.568        11.370         0.859         5.548
  YS02001895YS02001898       615.204      1176.388        11.364         0.858         5.544
  YS02001898YS02001901       615.044      1176.066        11.361         0.858         5.543
  YS02001901YS02001904       614.806      1175.715        11.367         0.859         5.548
  YS02001904YS02001907       615.138      1176.185        11.426         0.867         5.586
  YS02001887YS02001890       669.102      1284.078        12.353         0.936         6.030
  YS02001652YS02001649       310.897       590.505         6.170         0.446         2.900
  YS02001655YS02001652       311.401       591.345         6.184         0.447         2.907
  YS02001658YS02001655       310.881       590.551         6.097         0.436         2.850
  YS02001661YS02001658       311.401       591.444         6.109         0.437         2.856
  YS02001664YS02001661       324.475       612.461         6.417         0.457         2.996
  YSB1154YSB6556              36.099        72.065         0.671         0.053         0.330
  YSB1174YSB1171              24.947        50.013         0.489         0.039         0.242
  YSB1171HS02004479           62.901       125.016         1.340         0.114         0.684
  HS02004881HS02006253        73.372       148.967         1.530         0.109         0.744
  YS02001793JiankangQianchi      1281.622      2417.466        27.116         2.048        13.535
  YS02001757CaochengTiaoxuchi       766.592      1439.421        15.104         1.034         7.295
  WSF200WS02003060          1195.715      2296.886        28.417         2.358        14.608
  1                         2706.400      4839.434       145.813        16.600        86.719
  CC-Pump-1                  367.533       700.549         7.063         0.483         3.400
  CC-Pump-2                  107.779       205.251         2.077         0.142         1.001
  JK-Pump-1                  373.989       708.826         7.766         0.580         3.857
  JK-Pump-2                  770.102      1475.269        15.592         1.153         7.701
  XR-Pump-1                  345.450       585.253        25.951         3.131        15.891
  XR-Pump-2                  345.450       585.253        25.951         3.131        15.891
  XR-Pump-3                  345.450       585.253        25.951         3.131        15.891
  XR-Pump-4                  345.450       585.253        25.951         3.131        15.891
  

  Analysis begun on:  Thu Jul 15 01:30:05 2021
  Analysis ended on:  Thu Jul 15 01:30:08 2021
  Total elapsed time: 00:00:03