
  EPA STORM WATER MANAGEMENT MODEL - VERSION 5.1 (Build 5.3.0.dev0)
  --------------------------------------------------------------

  WARNING 04: minimum elevation drop used for Conduit WS02004404WS02004405
  WARNING 03: negative offset ignored for Link YS02001904YS02001907
  
  *********************************************************
  NOTE: The summary statistics displayed in this report are
  based on results found at every computational time step,  
  not just on results from each reporting time step.
  *********************************************************
  
  ****************
  Analysis Options
  ****************
  Flow Units ............... LPS
  Process Models:
    Rainfall/Runoff ........ YES
    RDII ................... NO
    Snowmelt ............... NO
    Groundwater ............ NO
    Flow Routing ........... YES
    Ponding Allowed ........ NO
    Water Quality .......... YES
  Infiltration Method ...... HORTON
  Flow Routing Method ...... DYNWAVE
  Surcharge Method ......... EXTRAN
  Starting Date ............ 08/28/2015 08:00:00
  Ending Date .............. 08/28/2015 15:50:00
  Antecedent Dry Days ...... 8.0
  Report Time Step ......... 00:01:00
  Wet Time Step ............ 00:01:00
  Dry Time Step ............ 00:01:00
  Routing Time Step ........ 5.00 sec
  Variable Time Step ....... YES
  Maximum Trials ........... 8
  Number of Threads ........ 4
  Head Tolerance ........... 0.001500 m
  
  
  **************************        Volume         Depth
  Runoff Quantity Continuity     hectare-m            mm
  **************************     ---------       -------
  Total Precipitation ......         1.372         3.003
  Evaporation Loss .........         0.000         0.000
  Infiltration Loss ........         0.336         0.735
  Surface Runoff ...........         0.682         1.493
  Final Storage ............         0.354         0.776
  Continuity Error (%) .....        -0.024
  
  
  **************************           COD            SS            TN            TP         NH4-N
  Runoff Quality Continuity             kg            kg            kg            kg            kg
  **************************    ----------    ----------    ----------    ----------    ----------
  Initial Buildup ..........     41378.656     70582.865      1804.177       168.684      1032.807
  Surface Buildup ..........        13.022        12.904         3.327         0.310         1.976
  Wet Deposition ...........         0.000         0.000         0.000         0.000         0.000
  Sweeping Removal .........         0.000         0.000         0.000         0.000         0.000
  Infiltration Loss ........        10.806        17.431         0.234         0.015         0.108
  BMP Removal ..............         0.000         0.000         0.000         0.000         0.000
  Surface Runoff ...........       283.454       446.094         6.136         0.382         2.874
  Remaining Buildup ........     41097.331     70132.109      1801.131       168.596      1031.801
  Continuity Error (%) .....         0.000         0.000         0.000         0.000         0.000
  
  
  **************************        Volume        Volume
  Flow Routing Continuity        hectare-m      10^6 ltr
  **************************     ---------     ---------
  Dry Weather Inflow .......         0.616         6.165
  Wet Weather Inflow .......         0.681         6.814
  Groundwater Inflow .......         0.000         0.000
  RDII Inflow ..............         0.000         0.000
  External Inflow ..........         0.102         1.024
  External Outflow .........         1.021        10.207
  Flooding Loss ............         0.058         0.575
  Evaporation Loss .........         0.000         0.000
  Exfiltration Loss ........         0.000         0.000
  Initial Stored Volume ....         0.076         0.761
  Final Stored Volume ......         0.476         4.762
  Continuity Error (%) .....        -5.296
  
  
  **************************           COD            SS            TN            TP         NH4-N
  Quality Routing Continuity            kg            kg            kg            kg            kg
  **************************    ----------    ----------    ----------    ----------    ----------
  Dry Weather Inflow .......      1541.201      2465.922       147.955        18.494        92.472
  Wet Weather Inflow .......       283.338       445.927         6.134         0.381         2.872
  Groundwater Inflow .......         0.000         0.000         0.000         0.000         0.000
  RDII Inflow ..............         0.000         0.000         0.000         0.000         0.000
  External Inflow ..........       183.418       293.469        17.608         2.201        11.005
  External Outflow .........      1469.946      2355.865       134.488        16.694        83.748
  Flooding Loss ............        23.133        36.913         0.970         0.100         0.556
  Exfiltration Loss ........         0.000         0.000         0.000         0.000         0.000
  Mass Reacted .............         0.000         0.000         0.000         0.000         0.000
  Initial Stored Mass ......         0.000         0.000         0.000         0.000         0.000
  Final Stored Mass ........       350.310       550.764        22.773         2.643        13.732
  Continuity Error (%) .....         8.196         8.167         7.843         7.782         7.817
  
  
  *************************
  Highest Continuity Errors
  *************************
  Node HS02004842 (35.76%)
  Node YS02001774 (32.06%)
  Node YS02001884 (30.82%)
  Node JK-storage (-23.66%)
  Node YS02001625 (10.49%)
  
  
  ***************************
  Time-Step Critical Elements
  ***************************
  Link WS02006280WS02006229 (33.48%)
  Link YS02001793JiankangQianchi (28.01%)
  Link WS02006238WS02006235 (15.26%)
  Link WS02006256WS02006235 (4.85%)
  Link WS02003066WSF200 (2.81%)
  
  
  ********************************
  Highest Flow Instability Indexes
  ********************************
  Link WS02006113WS02006111 (51)
  Link YS02001767YS02001765 (14)
  Link YS02001629YS02163301 (14)
  Link YS02163301YS02001633 (14)
  Link YS02001765YS02001762 (14)
  
  
  *************************
  Routing Time Step Summary
  *************************
  Minimum Time Step           :     0.50 sec
  Average Time Step           :     3.27 sec
  Maximum Time Step           :     5.00 sec
  Percent in Steady State     :    -0.00
  Average Iterations per Step :     2.41
  Percent Not Converging      :     1.61
  
  
  ***************************
  Subcatchment Runoff Summary
  ***************************
  
  ------------------------------------------------------------------------------------------------------------------------------
                            Total      Total      Total      Total     Imperv       Perv      Total       Total     Peak  Runoff
                           Precip      Runon       Evap      Infil     Runoff     Runoff     Runoff      Runoff   Runoff   Coeff
  Subcatchment                 mm         mm         mm         mm         mm         mm         mm    10^6 ltr      LPS
  ------------------------------------------------------------------------------------------------------------------------------
  sub0                       3.00       0.00       0.00       0.21       2.75       0.00       2.75        0.00     0.82   0.915
  sub1                       3.00       0.00       0.00       0.33       2.59       0.00       2.59        0.02     4.40   0.862
  sub2                       3.00       0.00       0.00       1.11       1.82       0.00       1.82        0.02     3.87   0.605
  sub3                       3.00       0.00       0.00       1.11       1.79       0.00       1.79        0.04     7.85   0.594
  sub4                       3.00       0.00       0.00       0.33       2.46       0.00       2.46        0.05     8.67   0.820
  sub5                       3.00       0.00       0.00       0.21       2.70       0.00       2.70        0.03     7.83   0.901
  sub7                       3.00       0.00       0.00       0.27       2.67       0.00       2.67        0.01     2.76   0.890
  sub8                       3.00       0.00       0.00       0.27       2.67       0.00       2.67        0.02     4.88   0.887
  sub9                       3.00       0.00       0.00       0.27       2.66       0.00       2.66        0.01     3.62   0.887
  sub10                      3.00       0.00       0.00       0.24       2.68       0.00       2.68        0.03     7.82   0.893
  sub11                      3.00       0.00       0.00       0.24       2.70       0.00       2.70        0.03     9.18   0.898
  sub12                      3.00       0.00       0.00       0.39       2.57       0.00       2.57        0.02     7.69   0.854
  sub14                      3.00       0.00       0.00       0.27       2.66       0.00       2.66        0.03     7.07   0.886
  sub15                      3.00       0.00       0.00       0.90       2.04       0.00       2.04        0.04     9.59   0.681
  sub16                      3.00       0.00       0.00       0.99       1.97       0.00       1.97        0.02     6.80   0.657
  sub17                      3.00       0.00       0.00       0.96       2.00       0.00       2.00        0.02     5.50   0.666
  sub22                      3.00       0.00       0.00       1.29       1.67       0.00       1.67        0.11    31.41   0.557
  sub23                      3.00       0.00       0.00       1.11       1.85       0.00       1.85        0.09    26.75   0.616
  sub60                      3.00       0.00       0.00       0.36       1.61       0.00       1.61        0.49    39.50   0.538
  sub61                      3.00       0.00       0.00       0.51       1.78       0.00       1.78        0.55    50.91   0.593
  sub62                      3.00       0.00       0.00       0.24       1.89       0.00       1.89        0.58    51.61   0.630
  sub63                      3.00       0.00       0.00       0.87       1.60       0.00       1.60        0.49    48.05   0.534
  sub64                      3.00       0.00       0.00       0.45       1.54       0.00       1.54        0.47    37.45   0.513
  sub65                      3.00       0.00       0.00       0.39       1.56       0.00       1.56        0.48    37.93   0.518
  sub66                      3.00       0.00       0.00       0.87       1.36       0.00       1.36        0.42    34.60   0.452
  sub67                      3.00       0.00       0.00       0.24       2.13       0.00       2.13        0.66    67.99   0.711
  sub68                      3.00       0.00       0.00       0.42       1.91       0.00       1.91        0.59    56.69   0.635
  sub69                      3.00       0.00       0.00       0.45       2.11       0.00       2.11        0.49    58.04   0.704
  sub70                      3.00       2.16       0.00       1.75       2.45       0.00       2.45        0.56    43.02   0.474
  sub71                      3.00       0.00       0.00       0.24       1.79       0.00       1.79        0.42    35.67   0.596
  sub72                      3.00       0.00       0.00       0.21       1.18       0.00       1.18        0.24    16.23   0.394
  1                          3.00       2.38       0.00       1.29       2.39       0.15       2.54        0.60    38.73   0.471
  2                          3.00       0.00       0.00       2.22       0.64       0.04       0.68        0.27    34.64   0.226
  
  
  ****************************
  Subcatchment Washoff Summary
  ****************************
  
  ------------------------------------------------------------------------------------------
                                 COD            SS            TN            TP         NH4-N
  Subcatchment                    kg            kg            kg            kg            kg
  ------------------------------------------------------------------------------------------
  sub0                         0.325         0.570         0.005         0.000         0.003
  sub1                         1.298         2.284         0.025         0.002         0.012
  sub2                         0.741         1.254         0.018         0.001         0.008
  sub3                         1.748         2.905         0.042         0.003         0.019
  sub4                         2.775         4.798         0.061         0.003         0.029
  sub5                         2.933         5.093         0.052         0.004         0.025
  sub7                         0.712         1.287         0.014         0.001         0.007
  sub8                         1.091         2.005         0.023         0.001         0.011
  sub9                         0.909         1.648         0.019         0.001         0.009
  sub10                        2.482         4.376         0.047         0.003         0.022
  sub11                        2.527         4.537         0.049         0.003         0.023
  sub12                        2.121         3.759         0.039         0.003         0.018
  sub14                        1.908         3.424         0.038         0.002         0.018
  sub15                        2.182         3.724         0.045         0.003         0.021
  sub16                        1.417         2.435         0.029         0.002         0.013
  sub17                        1.280         2.174         0.025         0.002         0.011
  sub22                        6.435        10.769         0.132         0.010         0.060
  sub23                        4.126         7.192         0.099         0.006         0.044
  sub60                       18.024        27.995         0.415         0.023         0.197
  sub61                       23.362        36.199         0.481         0.030         0.230
  sub62                       24.836        39.217         0.550         0.031         0.262
  sub63                       17.936        27.594         0.423         0.028         0.190
  sub64                       20.499        30.614         0.417         0.028         0.196
  sub65                       21.029        31.544         0.432         0.028         0.204
  sub66                       13.025        19.767         0.320         0.019         0.146
  sub67                       37.475        58.744         0.709         0.048         0.340
  sub68                       26.804        42.118         0.575         0.035         0.272
  sub69                       26.016        41.626         0.535         0.034         0.252
  sub70                       35.957        57.494         0.821         0.052         0.374
  sub71                       16.502        26.254         0.395         0.020         0.188
  sub72                        9.232        13.482         0.194         0.012         0.093
  1                           14.807        23.869         0.357         0.023         0.159
  2                            2.912         4.463         0.108         0.006         0.044
  ------------------------------------------------------------------------------------------
  System                     345.426       545.214         7.492         0.468         3.499
  
  
  ******************
  Node Depth Summary
  ******************
  
  ---------------------------------------------------------------------------------
                                 Average  Maximum  Maximum  Time of Max    Reported
                                   Depth    Depth      HGL   Occurrence   Max Depth
  Node                 Type       Meters   Meters   Meters  days hr:min      Meters
  ---------------------------------------------------------------------------------
  WS02001211           JUNCTION     0.61     0.77     5.61     0  04:20        0.77
  WS02001212           JUNCTION     0.34     0.47     5.54     0  04:19        0.47
  WS02001213           JUNCTION     0.55     0.70     5.47     0  04:18        0.70
  WS02003069           JUNCTION     0.33     0.48     5.07     0  04:17        0.48
  WS02003072           JUNCTION     0.40     0.55     4.92     0  04:18        0.55
  WS02003073           JUNCTION     0.23     0.33     4.40     0  04:18        0.33
  WS02003060           JUNCTION     0.30     0.43     5.36     0  04:16        0.43
  WS02003066           JUNCTION     0.14     0.24     5.80     0  03:13        0.24
  WS02003059           JUNCTION     0.61     0.75     5.44     0  04:18        0.75
  WS02003067           JUNCTION     0.37     0.60     5.92     0  03:12        0.60
  WS02004401           JUNCTION     0.46     0.68     6.68     0  03:08        0.68
  WS02004402           JUNCTION     0.50     0.72     6.68     0  03:08        0.72
  WS02004403           JUNCTION     0.52     0.74     6.67     0  03:08        0.74
  WS02004404           JUNCTION     0.60     0.82     6.67     0  03:08        0.82
  WS02004406           JUNCTION     0.61     0.83     6.66     0  03:08        0.83
  WS02004409           JUNCTION     0.27     0.50     6.27     0  03:11        0.50
  WS02004410           JUNCTION     0.29     0.53     6.25     0  03:12        0.53
  WS02004411           JUNCTION     0.31     0.54     6.22     0  03:12        0.54
  WS02004412           JUNCTION     0.33     0.56     6.20     0  03:12        0.56
  WS02004413           JUNCTION     0.47     0.73     6.20     0  03:12        0.73
  WS02004405           JUNCTION     0.60     0.81     6.66     0  03:08        0.81
  WS02006109           JUNCTION     0.52     0.76     7.37     0  03:02        0.76
  WS02006110           JUNCTION     0.54     0.76     7.34     0  03:02        0.76
  WS02006111           JUNCTION     0.13     0.22     6.93     0  03:03        0.22
  WS02006112           JUNCTION     0.61     0.85     6.74     0  03:07        0.85
  WS02006113           JUNCTION     0.19     0.35     7.24     0  03:02        0.35
  WS02006115           JUNCTION     0.35     0.57     6.71     0  03:07        0.57
  WS02006116           JUNCTION     0.43     0.66     6.70     0  03:08        0.66
  WS02006230           JUNCTION     0.42     0.70     7.44     0  03:03        0.70
  WS02006231           JUNCTION     0.23     0.45     7.57     0  03:04        0.45
  WS02006232           JUNCTION     0.34     0.59     7.63     0  03:05        0.59
  WS02006234           JUNCTION     0.23     0.50     7.65     0  03:05        0.50
  WS02006235           JUNCTION     0.26     0.53     7.69     0  03:05        0.53
  WS02006238           JUNCTION     0.28     0.55     7.69     0  03:05        0.55
  WS02006240           JUNCTION     0.17     0.40     7.69     0  03:06        0.40
  WS02006242           JUNCTION     0.20     0.42     7.69     0  03:05        0.42
  WS02006243           JUNCTION     0.10     0.27     7.69     0  03:06        0.27
  WS02006245           JUNCTION     0.08     0.21     7.69     0  03:05        0.21
  WS02006247           JUNCTION     0.08     0.19     7.69     0  03:06        0.19
  WS02006248           JUNCTION     0.05     0.11     7.70     0  03:03        0.11
  WS02006249           JUNCTION     0.07     0.15     7.75     0  02:18        0.15
  WS02006239           JUNCTION     0.22     0.48     7.69     0  03:06        0.48
  WS02006251           JUNCTION     0.04     0.12     7.79     0  02:17        0.12
  WS02006252           JUNCTION     0.00     0.00     8.24     0  00:00        0.00
  WS02006253           JUNCTION     0.08     0.18     7.82     0  02:16        0.18
  WS02006256           JUNCTION     0.94     2.35     9.28     0  00:00        2.35
  WS02004138           JUNCTION     0.13     0.20     7.45     0  00:00        0.19
  WS02004139           JUNCTION     0.55     0.72     5.63     0  04:20        0.72
  WS02004407           JUNCTION     0.12     0.23     6.54     0  03:09        0.23
  WS02006228           JUNCTION     0.50     0.75     7.40     0  03:02        0.75
  WS02006229           JUNCTION     0.46     0.72     7.41     0  03:02        0.72
  WS02006280           JUNCTION     0.05     0.11     8.38     0  02:17        0.11
  WS02006284           JUNCTION     0.33     0.44     8.84     0  02:17        0.44
  WS02006287           JUNCTION     0.07     0.16     9.12     0  02:16        0.16
  WSF200               JUNCTION     0.11     0.23     5.46     0  03:12        0.23
  HS02004901           JUNCTION     0.10     0.19    10.01     0  02:15        0.19
  HS02004881           JUNCTION     0.00     0.02     9.05     0  02:16        0.02
  HS02004876           JUNCTION     0.03     0.09     9.12     0  02:16        0.09
  HS02004870           JUNCTION     0.01     0.03     9.32     0  02:16        0.03
  HS02004862           JUNCTION     0.01     0.03     9.42     0  02:17        0.03
  HS02004856           JUNCTION     0.06     0.09     9.52     0  02:17        0.09
  HS02004852           JUNCTION     0.00     0.02     9.53     0  02:18        0.02
  HS02004848           JUNCTION     0.00     0.02     9.62     0  02:14        0.02
  HS02004842           JUNCTION     0.32     0.35     9.62     0  02:14        0.35
  HS02004837           JUNCTION     0.02     0.04     9.62     0  02:14        0.04
  HS02004830           JUNCTION     0.03     0.05     9.52     0  02:15        0.05
  HS02004824           JUNCTION     0.02     0.03     9.43     0  02:18        0.03
  HS02004817           JUNCTION     0.40     0.49     9.34     0  02:17        0.49
  HS02004807           JUNCTION     0.10     0.17     9.34     0  02:17        0.17
  HS02004802           JUNCTION     0.13     0.20     9.33     0  02:17        0.20
  HS02004799           JUNCTION     0.09     0.20     9.41     0  02:15        0.20
  HS02004792           JUNCTION     0.02     0.07     9.59     0  02:14        0.07
  HS02004788           JUNCTION     0.02     0.05     9.95     0  02:15        0.05
  HS02004785           JUNCTION     0.03     0.10    10.00     0  02:15        0.10
  HS02004777           JUNCTION     0.12     0.21    10.01     0  02:15        0.21
  HS02004770           JUNCTION     0.09     0.18    10.01     0  02:15        0.18
  HS02004480           JUNCTION     0.06     0.15     9.39     0  02:15        0.15
  HS02004479           JUNCTION     0.09     0.19     9.39     0  02:15        0.19
  HS02004478           JUNCTION     0.04     0.10     9.32     0  02:16        0.10
  YS02001745           JUNCTION     0.15     0.45     7.96     0  07:50        0.45
  YS02001748           JUNCTION     0.39     0.89     7.96     0  07:50        0.89
  YS02001751           JUNCTION     0.54     1.08     7.96     0  07:50        1.08
  YS02001754           JUNCTION     0.75     1.35     7.96     0  07:50        1.35
  YS02001762           JUNCTION     0.92     1.58     7.98     0  07:37        1.56
  YS02001765           JUNCTION     0.88     1.54     7.99     0  07:37        1.51
  YS02001767           JUNCTION     0.85     1.50     7.99     0  07:37        1.48
  YS02001770           JUNCTION     0.84     1.51     8.01     0  07:37        1.48
  YS02001774           JUNCTION     0.90     1.59     8.01     0  07:37        1.55
  YS02001779           JUNCTION     0.68     1.32     8.01     0  07:37        1.29
  YS02001882           JUNCTION     0.20     0.33     7.05     0  02:48        0.33
  YS02001884           JUNCTION     0.29     0.43     7.05     0  02:49        0.43
  YS02001759           JUNCTION     0.95     1.61     7.97     0  07:37        1.60
  YS02001887           JUNCTION     0.37     0.51     7.05     0  02:49        0.51
  YS02001890           JUNCTION     0.40     0.54     7.05     0  02:49        0.54
  YS02001898           JUNCTION     0.18     0.30     7.03     0  02:50        0.30
  YS02001901           JUNCTION     0.28     0.42     7.03     0  02:51        0.42
  YS02001904           JUNCTION     0.26     0.40     7.03     0  02:51        0.40
  YS02001907           JUNCTION     0.58     0.74     7.03     0  02:50        0.74
  YS02001910           JUNCTION     0.37     0.52     7.03     0  02:51        0.52
  YS02001915           JUNCTION     0.19     0.31     7.03     0  02:51        0.31
  YS02001918           JUNCTION     0.06     0.07     7.14     0  03:04        0.07
  YS02001619           JUNCTION     0.50     1.04     7.96     0  07:39        1.03
  YS02001629           JUNCTION     0.80     1.41     7.96     0  07:49        1.41
  YS02001641           JUNCTION     0.89     1.53     7.97     0  07:37        1.53
  YS02001644           JUNCTION     0.90     1.53     7.96     0  07:37        1.53
  YS02001652           JUNCTION     0.76     1.37     7.96     0  07:50        1.37
  YS02001655           JUNCTION     0.56     1.11     7.96     0  07:50        1.11
  YS02001920           JUNCTION     0.14     0.17     7.17     0  03:03        0.17
  YS02001923           JUNCTION     0.04     0.06     7.32     0  03:02        0.06
  YS02001926           JUNCTION     0.10     0.14     7.58     0  03:02        0.14
  YS02001929           JUNCTION     0.04     0.06     7.76     0  03:01        0.06
  YS02001658           JUNCTION     0.35     0.82     7.96     0  07:49        0.82
  YS02001661           JUNCTION     0.23     0.56     7.96     0  07:50        0.56
  YS02001664           JUNCTION     0.05     0.09     8.01     0  02:41        0.09
  YS02001622           JUNCTION     0.52     1.06     7.96     0  07:49        1.06
  YS02001633           JUNCTION     0.88     1.51     7.96     0  07:37        1.51
  YS02001649           JUNCTION     0.93     1.57     7.96     0  07:50        1.57
  YS02001757           JUNCTION     1.05     1.70     7.96     0  07:50        1.70
  YS02001895           JUNCTION     0.17     0.30     7.04     0  02:50        0.30
  YS02001625           JUNCTION     0.77     1.36     7.96     0  07:50        1.36
  YS02163301           JUNCTION     0.82     1.45     7.96     0  07:49        1.45
  YS02163601           JUNCTION     0.93     1.57     7.97     0  07:37        1.57
  YS02164001           JUNCTION     0.87     1.51     7.96     0  07:37        1.51
  YS02001647           JUNCTION     0.74     1.35     7.96     0  07:50        1.35
  YSB1154              JUNCTION     0.22     0.34     9.39     0  02:15        0.34
  YSB6556              JUNCTION     0.12     0.23     9.39     0  02:16        0.23
  YSB1174              JUNCTION     0.17     0.29     9.39     0  02:15        0.29
  YSB1171              JUNCTION     0.37     0.49     9.39     0  02:15        0.49
  YS02006553           JUNCTION     0.58     0.75     7.03     0  02:50        0.75
  YS02006561           JUNCTION     0.10     0.16     6.82     0  02:51        0.16
  YS02006556           JUNCTION     0.56     0.72     7.03     0  02:51        0.72
  YS02006558           JUNCTION     0.60     0.76     7.03     0  02:51        0.76
  YS02001783           JUNCTION     0.16     0.29     6.43     0  02:51        0.29
  YS02001784           JUNCTION     0.19     0.32     6.39     0  02:51        0.32
  YS02001786           JUNCTION     0.17     0.27     6.30     0  02:52        0.27
  YS02001788           JUNCTION     0.12     0.20     6.17     0  02:52        0.20
  YS02001790           JUNCTION     0.14     0.24     5.88     0  02:52        0.24
  YS02001791           JUNCTION     0.10     0.16     5.63     0  02:52        0.16
  YS02001793           JUNCTION     0.06     0.66     5.49     0  02:45        0.62
  WSC                  OUTFALL      0.23     0.33     1.00     0  04:19        0.33
  JK-storage           STORAGE      0.92     4.59     5.39     0  02:46        4.56
  CC-storage           STORAGE      0.42     0.96     7.96     0  07:50        0.96
  XR-storage           STORAGE      1.93     5.86     3.86     0  07:50        5.86
  
  
  *******************
  Node Inflow Summary
  *******************
  
  -------------------------------------------------------------------------------------------------
                                  Maximum  Maximum                  Lateral       Total        Flow
                                  Lateral    Total  Time of Max      Inflow      Inflow     Balance
                                   Inflow   Inflow   Occurrence      Volume      Volume       Error
  Node                 Type           LPS      LPS  days hr:min    10^6 ltr    10^6 ltr     Percent
  -------------------------------------------------------------------------------------------------
  WS02001211           JUNCTION      7.35   388.09     0  04:40       0.207        6.93       0.099
  WS02001212           JUNCTION      0.00   388.69     0  04:40           0        6.92       0.115
  WS02001213           JUNCTION      0.00   389.44     0  04:40           0        6.91       0.132
  WS02003069           JUNCTION      0.32   674.24     0  04:17     0.00902        10.2       0.093
  WS02003072           JUNCTION      0.00   674.23     0  04:17           0        10.2       0.147
  WS02003073           JUNCTION      1.82   676.05     0  04:18      0.0514        10.2       0.143
  WS02003060           JUNCTION     16.53   673.91     0  04:16       0.466        10.2       0.096
  WS02003066           JUNCTION      0.00   323.61     0  03:12           0        2.85       0.091
  WS02003059           JUNCTION      0.00   390.79     0  04:40           0        6.91       0.235
  WS02003067           JUNCTION      0.00   323.60     0  03:12           0        2.85       0.215
  WS02004401           JUNCTION      0.00   325.65     0  03:06           0           3       0.470
  WS02004402           JUNCTION      0.00   325.34     0  03:06           0        2.99       0.466
  WS02004403           JUNCTION      0.00   325.13     0  03:07           0        2.98       0.441
  WS02004404           JUNCTION      0.16   325.17     0  03:07     0.00457        2.97       0.350
  WS02004406           JUNCTION      0.00   325.08     0  03:08           0        2.94       0.867
  WS02004409           JUNCTION      0.00   325.05     0  03:09           0        2.91       0.262
  WS02004410           JUNCTION      0.00   324.53     0  03:10           0        2.91       0.332
  WS02004411           JUNCTION      0.00   324.12     0  03:10           0         2.9       0.367
  WS02004412           JUNCTION      0.00   323.84     0  03:11           0        2.89       0.435
  WS02004413           JUNCTION      0.00   323.67     0  03:11           0        2.87       0.700
  WS02004405           JUNCTION      0.04   325.15     0  03:07     0.00107        2.96       0.535
  WS02006109           JUNCTION      1.23   326.64     0  03:02      0.0347        3.06       0.405
  WS02006110           JUNCTION      0.00   326.63     0  03:02           0        3.05       0.394
  WS02006111           JUNCTION      0.00   329.49     0  03:03           0        3.03       0.061
  WS02006112           JUNCTION      5.50   327.83     0  03:03      0.0172        3.05       0.640
  WS02006113           JUNCTION      0.00   326.61     0  03:02           0        3.03       0.132
  WS02006115           JUNCTION      0.00   327.04     0  03:04           0        3.03       0.366
  WS02006116           JUNCTION      0.00   326.13     0  03:05           0        3.02       0.385
  WS02006230           JUNCTION     10.28   269.44     0  03:07        0.29        2.39       0.334
  WS02006231           JUNCTION      0.00   258.97     0  03:07           0        2.11       0.119
  WS02006232           JUNCTION      0.00   258.92     0  03:08           0        2.12       0.483
  WS02006234           JUNCTION      0.00   258.86     0  03:08           0        2.11      -0.100
  WS02006235           JUNCTION      0.00   288.60     0  00:00           0        2.29       0.416
  WS02006238           JUNCTION      0.00   164.86     0  00:00           0       0.403       0.578
  WS02006240           JUNCTION      0.00    80.36     0  00:02           0       0.264       0.732
  WS02006242           JUNCTION      0.00    65.03     0  00:03           0       0.194       1.054
  WS02006243           JUNCTION      0.00    28.13     0  03:20           0        0.14      -0.014
  WS02006245           JUNCTION      0.00    23.54     0  02:20           0       0.116       1.791
  WS02006247           JUNCTION      0.00    23.57     0  02:19           0       0.105       0.198
  WS02006248           JUNCTION      0.00    23.57     0  02:18           0      0.0991       0.065
  WS02006249           JUNCTION      0.00    23.63     0  02:17           0      0.0978       0.393
  WS02006239           JUNCTION      0.00   121.08     0  00:01           0       0.337       0.661
  WS02006251           JUNCTION      0.08    23.67     0  02:16     0.00217      0.0974       0.073
  WS02006252           JUNCTION      0.00     0.00     0  00:00           0           0       0.000 ltr
  WS02006253           JUNCTION      0.82    23.61     0  02:16     0.00223      0.0954       0.161
  WS02006256           JUNCTION      0.00   983.00     0  00:00           0        2.61      -0.062
  WS02004138           JUNCTION      0.00   380.00     0  00:00           0        6.73       0.027
  WS02004139           JUNCTION      0.32   396.51     0  00:00     0.00905        6.74       0.223
  WS02004407           JUNCTION      0.00   325.06     0  03:08           0        2.92       0.120
  WS02006228           JUNCTION      0.00   325.41     0  03:02           0        3.03       0.351
  WS02006229           JUNCTION      0.00   325.41     0  03:00           0        3.04       0.312
  WS02006280           JUNCTION      0.00   127.70     0  02:17           0        0.66       0.012
  WS02006284           JUNCTION      0.10   127.71     0  02:16      0.0027       0.661       0.169
  WS02006287           JUNCTION      0.00   127.63     0  02:16           0       0.659       0.105
  WSF200               JUNCTION      0.00   323.60     0  03:13           0        2.85       0.064
  HS02004901           JUNCTION      6.80     6.80     0  02:08      0.0207      0.0208       9.217
  HS02004881           JUNCTION      2.76    22.97     0  02:16     0.00901      0.0932       0.063
  HS02004876           JUNCTION      4.40    20.47     0  02:16      0.0172      0.0847       0.612
  HS02004870           JUNCTION      4.88    16.21     0  02:16       0.017      0.0676       0.156
  HS02004862           JUNCTION      4.07    11.72     0  02:16      0.0226      0.0507       0.328
  HS02004856           JUNCTION      3.62     7.71     0  02:15      0.0128      0.0296       5.096
  HS02004852           JUNCTION      0.00     4.37     0  02:16           0      0.0169       0.279
  HS02004848           JUNCTION      7.85     7.85     0  02:17      0.0402      0.0402       0.106
  HS02004842           JUNCTION      0.00     4.48     0  00:03           0      0.0364      55.657
  HS02004837           JUNCTION     14.17    17.51     0  02:13       0.209       0.232       0.353
  HS02004830           JUNCTION      0.15    17.64     0  02:14     0.00423       0.222       0.556
  HS02004824           JUNCTION      8.72    26.26     0  02:18      0.0528       0.274       0.197
  HS02004817           JUNCTION      0.60    26.86     0  02:18      0.0169        0.29       6.086
  HS02004807           JUNCTION      9.18    35.19     0  02:17      0.0313       0.305       1.404
  HS02004802           JUNCTION      0.00    35.26     0  02:18           0       0.301       1.371
  HS02004799           JUNCTION      7.07    78.80     0  02:14      0.0253       0.324       0.714
  HS02004792           JUNCTION     31.69    71.95     0  02:13       0.114       0.299       0.141
  HS02004788           JUNCTION     11.26    41.95     0  02:15      0.0822       0.186       0.211
  HS02004785           JUNCTION      0.15    31.15     0  02:14     0.00423       0.106       0.451
  HS02004777           JUNCTION      0.03    31.51     0  02:12    0.000846       0.106       5.107
  HS02004770           JUNCTION     26.75    32.57     0  02:10      0.0882       0.107       2.973
  HS02004480           JUNCTION      0.00    92.83     0  02:15           0       0.374       0.180
  HS02004479           JUNCTION      0.00    14.28     0  02:16           0      0.0624       1.180
  HS02004478           JUNCTION      0.00   127.64     0  02:16           0       0.659       0.098
  YS02001745           JUNCTION     39.51    48.47     0  05:32       0.489       0.493       1.249
  YS02001748           JUNCTION      0.04    65.11     0  05:33     0.00127       0.491       4.259
  YS02001751           JUNCTION      0.01    70.32     0  03:56     0.00031       0.467       5.356
  YS02001754           JUNCTION      0.26    66.36     0  03:04     0.00733       0.449       6.091
  YS02001762           JUNCTION      0.00    61.08     0  03:09           0       0.503       4.699
  YS02001765           JUNCTION      0.00    67.38     0  03:07           0       0.506       5.248
  YS02001767           JUNCTION      0.54    61.61     0  02:27      0.0151       0.529       7.412
  YS02001770           JUNCTION     51.76    58.50     0  04:05       0.586       0.606       5.852
  YS02001774           JUNCTION      0.00    33.13     0  04:06           0      0.0833      47.193
  YS02001779           JUNCTION      0.01    29.75     0  04:06    0.000141      0.0363      76.822
  YS02001882           JUNCTION      0.00     2.31     0  02:08           0     0.00349      71.013
  YS02001884           JUNCTION      0.00     6.79     0  02:06           0      0.0142      44.553
  YS02001759           JUNCTION     50.95   110.37     0  03:07        0.55        1.02       2.470
  YS02001887           JUNCTION     68.44    68.44     0  02:39       0.671       0.678       0.988
  YS02001890           JUNCTION      0.00    67.99     0  02:41           0       0.659       1.119
  YS02001898           JUNCTION      0.00    67.70     0  02:44           0       0.648       0.276
  YS02001901           JUNCTION      0.00    67.70     0  02:45           0       0.648       0.778
  YS02001904           JUNCTION      0.00    67.45     0  02:45           0       0.647       0.724
  YS02001907           JUNCTION      0.00   121.56     0  02:52           0        1.38       1.566
  YS02001910           JUNCTION      0.00    54.87     0  03:01           0       0.739       1.302
  YS02001915           JUNCTION     35.69    54.56     0  03:00       0.423       0.743       0.533
  YS02001918           JUNCTION      0.00    19.14     0  03:03           0       0.321       0.265
  YS02001619           JUNCTION     34.60    34.60     0  02:54       0.416       0.416       3.050
  YS02001629           JUNCTION      0.00    46.20     0  04:09           0       0.335       9.489
  YS02001641           JUNCTION      0.00    68.26     0  03:06           0       0.706       3.295
  YS02001644           JUNCTION     37.49   102.43     0  02:58       0.469        1.15       2.434
  YS02001652           JUNCTION      0.00    58.57     0  03:00           0       0.435       5.976
  YS02001655           JUNCTION      0.15    66.12     0  03:51     0.00434       0.459       5.726
  YS02001920           JUNCTION      2.87    19.15     0  03:02      0.0809       0.322       0.537
  YS02001923           JUNCTION      0.04    16.28     0  03:02     0.00106       0.242       0.094
  YS02001926           JUNCTION      0.05    16.27     0  03:01     0.00147       0.242       0.685
  YS02001929           JUNCTION     16.23    16.23     0  03:01       0.241       0.241       0.090
  YS02001658           JUNCTION      0.00    53.49     0  05:30           0        0.48       4.387
  YS02001661           JUNCTION      0.00    48.05     0  02:41           0       0.491       2.503
  YS02001664           JUNCTION     48.05    48.05     0  02:41       0.485       0.485       0.027
  YS02001622           JUNCTION      0.00    39.84     0  04:06           0       0.405       8.566
  YS02001633           JUNCTION     38.13    75.17     0  02:32       0.484       0.767       4.480
  YS02001649           JUNCTION      0.00   168.70     0  03:07           0        1.49       2.691
  YS02001757           JUNCTION      0.00   323.01     0  03:01           0        2.83       3.444
  YS02001895           JUNCTION      0.00    67.81     0  02:43           0       0.651       0.498
  YS02001625           JUNCTION      0.00    48.06     0  04:06           0       0.375      11.723
  YS02163301           JUNCTION      0.00    39.26     0  02:32           0        0.31       8.903
  YS02163601           JUNCTION      0.11    71.73     0  02:32      0.0031       0.734       4.467
  YS02164001           JUNCTION      0.00    68.13     0  02:49           0       0.712       3.271
  YS02001647           JUNCTION      0.00   104.15     0  03:05           0        1.11       2.757
  YSB1154              JUNCTION      7.83     7.83     0  02:12      0.0306      0.0319       4.735
  YSB6556              JUNCTION      0.00     7.78     0  02:13           0      0.0329       3.921
  YSB1174              JUNCTION      7.69     7.69     0  02:07      0.0224      0.0233       5.820
  YSB1171              JUNCTION      0.00    14.44     0  02:14           0      0.0618      11.384
  YS02006553           JUNCTION      0.00   121.60     0  02:53           0        1.36       1.020
  YS02006561           JUNCTION      0.00   178.55     0  02:51           0        1.93       0.028
  YS02006556           JUNCTION      0.00   121.64     0  02:53           0        1.37       0.730
  YS02006558           JUNCTION     57.57   178.56     0  02:51       0.611        1.95       0.221
  YS02001783           JUNCTION      0.00   178.55     0  02:51           0        1.93       0.064
  YS02001784           JUNCTION      1.06   179.61     0  02:51      0.0299        1.96       0.107
  YS02001786           JUNCTION      0.06   179.65     0  02:52     0.00159        1.96       0.104
  YS02001788           JUNCTION      0.07   179.71     0  02:52       0.002        1.96       0.059
  YS02001790           JUNCTION      0.15   179.87     0  02:52     0.00437        1.96       0.075
  YS02001791           JUNCTION      0.00   179.86     0  02:52           0        1.96       0.035
  YS02001793           JUNCTION      0.00   508.82     0  02:49           0        1.98       0.059
  WSC                  OUTFALL       0.00   676.05     0  04:19           0        10.2       0.000
  JK-storage           STORAGE       0.00   811.72     0  02:50           0        2.13     -19.135
  CC-storage           STORAGE       0.00   267.06     0  02:53           0        2.73       2.026
  XR-storage           STORAGE     269.34   269.34     0  02:48        6.51        7.11      -4.351
  
  
  **********************
  Node Surcharge Summary
  **********************
  
  Surcharging occurs when water rises above the top of the highest conduit.
  ---------------------------------------------------------------------
                                               Max. Height   Min. Depth
                                   Hours       Above Crown    Below Rim
  Node                 Type      Surcharged         Meters       Meters
  ---------------------------------------------------------------------
  WS02006256           JUNCTION        5.45          2.050        0.000
  YS02001751           JUNCTION        0.90          0.083        1.117
  YS02001754           JUNCTION        2.67          0.304        0.846
  YS02001762           JUNCTION        4.07          0.576        0.574
  YS02001765           JUNCTION        3.83          0.536        0.564
  YS02001767           JUNCTION        3.64          0.504        0.526
  YS02001770           JUNCTION        3.46          0.480        0.440
  YS02001774           JUNCTION        3.97          0.586        0.464
  YS02001779           JUNCTION        2.45          0.324        0.356
  YS02001759           JUNCTION        4.23          0.608        0.602
  YS02001619           JUNCTION        0.38          0.035        0.575
  YS02001629           JUNCTION        0.38          0.035        0.435
  YS02001641           JUNCTION        3.89          0.529        0.571
  YS02001644           JUNCTION        3.92          0.532        0.388
  YS02001652           JUNCTION        2.88          0.336        0.794
  YS02001655           JUNCTION        1.19          0.111        1.089
  YS02001622           JUNCTION        0.65          0.060        0.560
  YS02001633           JUNCTION        3.71          0.490        0.570
  YS02001649           JUNCTION        4.11          0.572        0.478
  YS02001757           JUNCTION        4.71          0.701        0.509
  YS02001625           JUNCTION        3.02          0.360        0.420
  YS02163301           JUNCTION        3.50          0.447        0.583
  YS02163601           JUNCTION        4.08          0.569        0.511
  YS02164001           JUNCTION        3.80          0.506        0.594
  YS02001647           JUNCTION        2.98          0.353        0.547
  
  
  *********************
  Node Flooding Summary
  *********************
  
  Flooding refers to all water that overflows a node, whether it ponds or not.
  --------------------------------------------------------------------------
                                                             Total   Maximum
                                 Maximum   Time of Max       Flood    Ponded
                        Hours       Rate    Occurrence      Volume     Depth
  Node                 Flooded       LPS   days hr:min    10^6 ltr    Meters
  --------------------------------------------------------------------------
  WS02006256              1.12    978.40      0  00:00       0.574     0.000
  
  
  **********************
  Storage Volume Summary
  **********************
  
  --------------------------------------------------------------------------------------------------
                         Average     Avg  Evap Exfil       Maximum     Max    Time of Max    Maximum
                          Volume    Pcnt  Pcnt  Pcnt        Volume    Pcnt     Occurrence    Outflow
  Storage Unit           1000 m3    Full  Loss  Loss       1000 m3    Full    days hr:min        LPS
  --------------------------------------------------------------------------------------------------
  JK-storage               0.046      16     0     0         0.231      79       0  02:46     983.00
  CC-storage               1.178       8     0     0         2.676      17       0  07:50       0.00
  XR-storage               0.232      25     0     0         0.703      76       0  07:50     380.00
  
  
  ***********************
  Outfall Loading Summary
  ***********************
  
  ---------------------------------------------------------------------------------------------------------------------------------
                         Flow       Avg       Max       Total         Total         Total         Total         Total         Total
                         Freq      Flow      Flow      Volume           COD            SS            TN            TP         NH4-N
  Outfall Node           Pcnt       LPS       LPS    10^6 ltr            kg            kg            kg            kg            kg
  ---------------------------------------------------------------------------------------------------------------------------------
  WSC                   99.95    365.51    676.05      10.207      1469.924      2355.831       134.487        16.694        83.747
  ---------------------------------------------------------------------------------------------------------------------------------
  System                99.95    365.51    676.05      10.207      1469.924      2355.831       134.487        16.694        83.747
  
  
  ********************
  Link Flow Summary
  ********************
  
  -----------------------------------------------------------------------------
                                 Maximum  Time of Max   Maximum    Max/    Max/
                                  |Flow|   Occurrence   |Veloc|    Full    Full
  Link                 Type          LPS  days hr:min     m/sec    Flow   Depth
  -----------------------------------------------------------------------------
  WS02003066WSF200     CONDUIT    323.60     0  03:13      2.51    0.05    0.18
  WS02006287WS02006284 CONDUIT    127.61     0  02:16      1.37    0.06    0.18
  WS02006284WS02006280 CONDUIT    127.70     0  02:17      1.62    0.05    0.16
  WS02006280WS02006229 CONDUIT    127.70     0  02:17      2.59    0.03    0.11
  WS02006229WS02006228 CONDUIT    325.41     0  03:02      0.96    1.08    0.90
  WS02006256WS02006235 CONDUIT    288.60     0  00:00      4.23    3.05    1.00
  WS02006253WS02006251 CONDUIT     23.59     0  02:16      0.40    0.07    0.21
  WS02006252WS02006251 CONDUIT      0.00     0  00:00      0.00    0.00    0.00
  WS02006251WS02006249 CONDUIT     23.63     0  02:17      0.44    0.07    0.20
  WS02006249WS02006248 CONDUIT     23.57     0  02:18      0.53    0.13    0.17
  WS02006248WS02006247 CONDUIT     23.57     0  02:19      0.52    0.05    0.21
  WS02006247WS02006245 CONDUIT     23.54     0  02:20      0.47    0.19    0.28
  WS02006245WS02006243 CONDUIT     28.13     0  03:20      0.59    0.08    0.34
  WS02006243WS02006242 CONDUIT     52.02     0  07:10      0.48    0.11    0.48
  WS02006242WS02006240 CONDUIT     69.38     0  07:09      0.90    0.28    0.58
  WS02006240WS02006239 CONDUIT     88.02     0  03:20      0.76    0.28    0.60
  WS02006239WS02006238 CONDUIT    121.08     0  00:01      0.88    0.39    0.72
  WS02006238WS02006235 CONDUIT    164.86     0  00:00      1.46    0.37    0.77
  WS02006235WS02006234 CONDUIT    258.86     0  03:08      1.09    2.73    0.71
  WS02006234WS02006232 CONDUIT    258.92     0  03:08      1.39    0.52    0.78
  WS02006232WS02006231 CONDUIT    258.97     0  03:07      0.85    0.54    0.74
  WS02006231WS02006230 CONDUIT    259.16     0  03:07      1.21    3.93    0.55
  WS02006230WS02006229 CONDUIT    269.70     0  03:07      0.90    6.00    0.98
  WS02006228WS02006109 CONDUIT    325.41     0  03:02      0.79    1.42    0.93
  WS02006116WS02004401 CONDUIT    325.65     0  03:06      0.58    0.45    0.67
  WS02006115WS02006116 CONDUIT    326.13     0  03:05      0.71    0.42    0.58
  WS02006113WS02006111 CONDUIT    329.49     0  03:03      2.06    0.39    0.36
  WS02006112WS02006115 CONDUIT    327.04     0  03:04      0.57    0.19    0.71
  WS02006111WS02006112 CONDUIT    326.58     0  03:03      0.97    0.16    0.63
  WS02006110WS02006113 CONDUIT    326.61     0  03:02      0.89    0.30    0.69
  WS02006109WS02006110 CONDUIT    326.63     0  03:02      0.70    0.63    0.88
  WS02004411WS02004412 CONDUIT    323.84     0  03:11      0.73    0.46    0.55
  WS02004401WS02004402 CONDUIT    325.34     0  03:06      0.55    0.39    0.70
  WS02004413WS02003067 CONDUIT    323.60     0  03:12      0.85    0.14    0.49
  WS02004412WS02004413 CONDUIT    323.67     0  03:11      0.60    0.22    0.64
  WS02004410WS02004411 CONDUIT    324.12     0  03:10      0.76    0.44    0.53
  WS02004409WS02004410 CONDUIT    324.53     0  03:10      0.80    0.42    0.52
  WS02004407WS02004409 CONDUIT    325.05     0  03:09      1.27    0.12    0.37
  WS02004406WS02004407 CONDUIT    325.06     0  03:08      0.77    0.15    0.53
  WS02004405WS02004406 CONDUIT    325.08     0  03:08      0.47    0.64    0.82
  WS02004404WS02004405 CONDUIT    325.11     0  03:07      0.47    3.19    0.82
  WS02004403WS02004404 CONDUIT    325.01     0  03:07      0.51    0.23    0.78
  WS02004402WS02004403 CONDUIT    325.13     0  03:07      0.53    0.47    0.73
  WS02004139WS02001211 CONDUIT    380.74     0  04:40      0.90    0.48    0.58
  WS02004138WS02004139 CONDUIT    396.19     0  00:00      3.65    0.08    0.43
  WS02003067WS02003066 CONDUIT    323.61     0  03:12      0.91    0.10    0.35
  WS02001213WS02003059 CONDUIT    390.79     0  04:40      0.88    0.64    0.72
  WS02001212WS02001213 CONDUIT    389.44     0  04:40      1.32    0.60    0.43
  WS02001211WS02001212 CONDUIT    388.69     0  04:40      0.78    0.30    0.62
  WS02003072WS02003073 CONDUIT    674.23     0  04:18      1.54    1.46    0.41
  WS02003069WS02003072 CONDUIT    674.23     0  04:17      1.46    0.32    0.43
  WS02003060WS02003069 CONDUIT    673.92     0  04:17      1.72    0.26    0.38
  WS02003059WS02003060 CONDUIT    392.75     0  04:41      0.95    0.26    0.59
  HS02004901HS02004770 CONDUIT      6.11     0  02:13      0.03    0.02    0.27
  HS02004876HS02004881 CONDUIT     20.49     0  02:16      0.39    0.22    0.07
  HS02004870HS02004876 CONDUIT     16.19     0  02:16      0.28    0.01    0.08
  HS02004842HS02004848 CONDUIT      3.70     0  02:26      0.02    0.00    0.26
  HS02004837HS02004842 CONDUIT      4.48     0  00:03      0.42    0.00    0.28
  HS02004830HS02004837 CONDUIT     17.49     0  02:14      0.39    0.02    0.06
  HS02004824HS02004830 CONDUIT     17.64     0  02:15      0.43    0.02    0.06
  HS02004817HS02004824 CONDUIT     26.26     0  02:18      0.17    0.01    0.37
  HS02004770HS02004777 CONDUIT     31.48     0  02:12      0.16    0.06    0.28
  HS02004799HS02004480 CONDUIT     78.64     0  02:15      0.46    0.10    0.25
  HS02004792HS02004799 CONDUIT     71.90     0  02:14      0.53    0.04    0.19
  HS02004788HS02004792 CONDUIT     41.91     0  02:15      0.69    0.03    0.09
  HS02004785HS02004788 CONDUIT     31.02     0  02:15      0.40    0.23    0.11
  HS02004777HS02004785 CONDUIT     31.00     0  02:14      0.20    0.04    0.22
  HS02004480HS02004478 CONDUIT     92.71     0  02:15      0.78    0.39    0.17
  HS02004479HS02004480 CONDUIT     14.43     0  02:18      0.15    0.01    0.24
  HS02004862HS02004870 CONDUIT     11.68     0  02:17      0.38    0.01    0.04
  HS02004848HS02004852 CONDUIT      4.37     0  02:16      0.24    0.00    0.03
  HS02004856HS02004862 CONDUIT      7.68     0  02:17      0.27    0.01    0.04
  HS02004852HS02004856 CONDUIT      4.33     0  02:18      0.08    0.00    0.08
  HS02004802HS02004478 CONDUIT     35.43     0  02:19      0.24    0.03    0.21
  HS02004478WS02006287 CONDUIT    127.63     0  02:16      1.06    0.04    0.13
  HS02004817HS02004807 CONDUIT     27.10     0  02:20      0.08    0.02    0.47
  HS02004807HS02004802 CONDUIT     35.26     0  02:18      0.20    0.07    0.26
  YS02001759YS02001757 CONDUIT    110.41     0  02:47      0.15    0.08    1.00
  YS02001762YS02001759 CONDUIT     63.71     0  03:10      0.17    0.07    1.00
  YS02001765YS02001762 CONDUIT     61.08     0  03:09      0.23    0.06    1.00
  YS02001770YS02001767 CONDUIT     61.08     0  02:27      0.28    0.24    1.00
  YS02001774YS02001770 CONDUIT     33.13     0  04:06      0.12    0.02    1.00
  YS02001779YS02001774 CONDUIT     29.75     0  04:06      0.06    0.01    1.00
  YS02001649YS02001757 CONDUIT    154.86     0  03:01      0.21    0.09    1.00
  YS02001767YS02001765 CONDUIT     67.38     0  03:07      0.26    0.08    1.00
  YS02006561YS02001783 CONDUIT    178.55     0  02:51      1.54    0.09    0.28
  YS02001783YS02001784 CONDUIT    178.55     0  02:51      1.03    0.25    0.38
  YS02001784YS02001785 CONDUIT    179.59     0  02:52      1.07    0.42    0.37
  YS02001788YS02001790 CONDUIT    179.71     0  02:52      1.62    0.13    0.27
  YS02001790YS02001791 CONDUIT    179.86     0  02:52      1.89    0.20    0.25
  YS02001791YS02001793 CONDUIT    192.88     0  02:51      3.70    0.08    0.51
  YS02001910YS02001907 CONDUIT     54.99     0  03:01      0.49    0.03    0.63
  YS02001786YS02001788 CONDUIT    179.64     0  02:52      1.47    0.35    0.29
  YS02001915YS02001910 CONDUIT     54.87     0  03:01      0.44    0.03    0.42
  YS02001918YS02001915 CONDUIT     19.13     0  03:04      0.44    0.01    0.19
  YS02001923YS02001920 CONDUIT     16.28     0  03:02      0.33    0.01    0.11
  YS02001926YS02001923 CONDUIT     16.24     0  03:02      0.39    0.02    0.10
  YS02001929YS02001926 CONDUIT     16.22     0  03:01      0.40    0.01    0.10
  YS02001920YS02001918 CONDUIT     19.14     0  03:03      0.36    0.02    0.12
  YS02001629YS02163301 CONDUIT     39.26     0  02:32      0.09    0.05    1.00
  YS02001619YS02001622 CONDUIT     39.84     0  04:06      0.56    0.06    1.00
  YS02001622YS02001625 CONDUIT     38.52     0  05:36      0.19    0.02    1.00
  YS02001625YS02001629 CONDUIT     46.20     0  04:09      0.19    0.02    1.00
  YS02163301YS02001633 CONDUIT     39.46     0  02:32      0.07    0.04    1.00
  YS02163601YS02164001 CONDUIT     68.13     0  02:49      0.11    0.06    1.00
  YS02164001YS02001641 CONDUIT     68.26     0  03:06      0.10    0.09    1.00
  YS02001641YS02001644 CONDUIT     65.34     0  03:05      0.13    0.21    1.00
  YS02001647YS02001649 CONDUIT    106.40     0  03:07      0.17    0.06    1.00
  YS02006553YS02006556 CONDUIT    121.64     0  02:53      0.20    0.10    0.71
  YS02006556YS02006558 CONDUIT    121.65     0  02:54      0.20    0.10    0.74
  YSB6556YSB1171       CONDUIT      7.89     0  02:17      0.04    0.01    0.51
  YS02001907YS02006553 CONDUIT    121.60     0  02:53      0.17    0.14    0.81
  YS02006558YS02006561 CONDUIT    178.55     0  02:51      1.98    0.39    0.36
  YS02001633YS02163601 CONDUIT     71.62     0  02:32      0.12    0.08    1.00
  YS02001644YS02001647 CONDUIT    104.15     0  03:05      0.18    0.06    1.00
  YS02001745YS02001748 CONDUIT     65.06     0  05:33      1.21    0.03    0.63
  YS02001748YS02001751 CONDUIT     70.31     0  03:56      0.96    0.04    0.94
  YS02001751YS02001754 CONDUIT     65.13     0  03:04      0.87    0.03    1.00
  YS02001754YS02001757 CONDUIT     77.23     0  03:05      0.33    0.03    1.00
  YS02001882YS02001884 CONDUIT      2.31     0  02:08      0.06    0.00    0.35
  YS02001884YS02001887 CONDUIT      6.79     0  02:06      0.04    0.01    0.45
  YS02001890YS02001895 CONDUIT     67.81     0  02:43      0.22    0.03    0.42
  YS02001895YS02001898 CONDUIT     67.70     0  02:44      0.43    0.12    0.28
  YS02001898YS02001901 CONDUIT     67.70     0  02:45      0.27    0.04    0.36
  YS02001901YS02001904 CONDUIT     67.45     0  02:45      0.22    0.10    0.41
  YS02001904YS02001907 CONDUIT     67.52     0  02:47      0.15    0.02    0.57
  YS02001887YS02001890 CONDUIT     67.99     0  02:41      0.17    0.12    0.50
  YS02001652YS02001649 CONDUIT     62.44     0  03:07      0.27    0.03    1.00
  YS02001655YS02001652 CONDUIT     58.57     0  03:00      0.93    0.03    1.00
  YS02001658YS02001655 CONDUIT     65.96     0  03:51      1.10    0.03    0.91
  YS02001661YS02001658 CONDUIT     53.49     0  05:30      1.23    0.02    0.65
  YS02001664YS02001661 CONDUIT     48.05     0  02:41      0.84    0.02    0.30
  YSB1154YSB6556       CONDUIT      7.78     0  02:13      0.19    0.01    0.40
  YSB1174YSB1171       CONDUIT      7.25     0  02:09      0.04    0.01    0.52
  YSB1171HS02004479    CONDUIT     14.28     0  02:16      0.54    0.01    0.39
  HS02004881HS02006253 CONDUIT     22.97     0  02:16      1.35    0.00    0.02
  YS02001793JiankangQianchi CONDUIT    811.72     0  02:50     11.28    0.06    0.83
  YS02001757CaochengTiaoxuchi CONDUIT    267.06     0  02:53      0.64    0.12    0.98
  WSF200WS02003060     CONDUIT    324.92     0  03:12      1.71    0.07    0.26
  1                    CONDUIT    676.05     0  04:19      2.99    0.24    0.33
  CC-Pump-1            PUMP         0.00     0  00:00              0.00
  CC-Pump-2            PUMP         0.00     0  00:00              0.00
  JK-Pump-1            PUMP       300.00     0  00:00              1.00
  JK-Pump-2            PUMP       683.00     0  00:00              1.00
  XR-Pump-1            PUMP        95.00     0  00:00              1.00
  XR-Pump-2            PUMP        95.00     0  00:00              1.00
  XR-Pump-3            PUMP        95.00     0  00:00              1.00
  XR-Pump-4            PUMP        95.00     0  00:00              1.00
  
  
  ***************************
  Flow Classification Summary
  ***************************
  
  -------------------------------------------------------------------------------------
                      Adjusted    ---------- Fraction of Time in Flow Class ---------- 
                       /Actual         Up    Down  Sub   Sup   Up    Down  Norm  Inlet 
  Conduit               Length    Dry  Dry   Dry   Crit  Crit  Crit  Crit  Ltd   Ctrl  
  -------------------------------------------------------------------------------------
  WS02003066WSF200        1.00   0.05  0.18  0.00  0.00  0.78  0.00  0.00  0.71  0.00
  WS02006287WS02006284    1.00   0.07  0.06  0.00  0.62  0.25  0.00  0.00  0.81  0.00
  WS02006284WS02006280    1.00   0.10  0.00  0.00  0.00  0.00  0.00  0.90  0.00  0.00
  WS02006280WS02006229    1.00   0.10  0.00  0.00  0.00  0.00  0.00  0.90  0.00  0.00
  WS02006229WS02006228    1.00   0.00  0.00  0.00  0.99  0.00  0.00  0.01  0.00  0.00
  WS02006256WS02006235    1.00   0.00  0.00  0.00  1.00  0.00  0.00  0.00  0.00  0.00
  WS02006253WS02006251    1.00   0.04  0.04  0.00  0.91  0.00  0.01  0.00  0.00  0.00
  WS02006252WS02006251    1.00   1.00  0.00  0.00  0.00  0.00  0.00  0.00  0.00  0.00
  WS02006251WS02006249    1.00   0.00  0.00  0.00  1.00  0.00  0.00  0.00  0.98  0.00
  WS02006249WS02006248    1.00   0.00  0.02  0.00  0.23  0.00  0.76  0.00  0.00  0.00
  WS02006248WS02006247    1.00   0.02  0.00  0.00  0.95  0.00  0.00  0.04  0.69  0.00
  WS02006247WS02006245    1.00   0.02  0.00  0.00  0.91  0.00  0.00  0.06  0.00  0.00
  WS02006245WS02006243    1.00   0.01  0.00  0.00  0.81  0.00  0.00  0.18  0.07  0.00
  WS02006243WS02006242    1.00   0.01  0.00  0.00  0.99  0.00  0.00  0.00  0.65  0.00
  WS02006242WS02006240    1.00   0.00  0.00  0.00  1.00  0.00  0.00  0.00  0.00  0.00
  WS02006240WS02006239    1.00   0.00  0.00  0.00  0.70  0.00  0.00  0.30  0.03  0.00
  WS02006239WS02006238    1.00   0.00  0.00  0.00  1.00  0.00  0.00  0.00  0.32  0.00
  WS02006238WS02006235    1.00   0.00  0.00  0.00  1.00  0.00  0.00  0.00  0.00  0.00
  WS02006235WS02006234    1.00   0.00  0.00  0.00  0.77  0.00  0.23  0.00  0.00  0.00
  WS02006234WS02006232    1.00   0.00  0.00  0.00  1.00  0.00  0.00  0.00  0.23  0.00
  WS02006232WS02006231    1.00   0.00  0.00  0.00  0.99  0.00  0.01  0.00  0.00  0.00
  WS02006231WS02006230    1.00   0.00  0.00  0.00  0.08  0.00  0.92  0.00  0.00  0.00
  WS02006230WS02006229    1.00   0.00  0.00  0.00  0.99  0.00  0.00  0.01  0.02  0.00
  WS02006228WS02006109    1.00   0.00  0.00  0.00  0.99  0.00  0.00  0.00  0.01  0.00
  WS02006116WS02004401    1.00   0.03  0.00  0.00  0.97  0.00  0.00  0.00  0.01  0.00
  WS02006115WS02006116    1.00   0.03  0.00  0.00  0.93  0.00  0.00  0.05  0.01  0.00
  WS02006113WS02006111    1.00   0.02  0.00  0.00  0.00  0.98  0.00  0.00  0.23  0.00
  WS02006112WS02006115    1.00   0.02  0.01  0.00  0.97  0.00  0.00  0.00  0.00  0.00
  WS02006111WS02006112    1.00   0.02  0.00  0.00  0.98  0.00  0.00  0.00  0.98  0.00
  WS02006110WS02006113    1.00   0.01  0.01  0.00  0.98  0.00  0.00  0.00  0.00  0.00
  WS02006109WS02006110    1.00   0.00  0.01  0.00  0.99  0.00  0.00  0.00  0.00  0.00
  WS02004411WS02004412    1.00   0.15  0.00  0.00  0.85  0.00  0.00  0.00  0.00  0.00
  WS02004401WS02004402    1.00   0.03  0.00  0.00  0.97  0.00  0.00  0.00  0.01  0.00
  WS02004413WS02003067    1.00   0.16  0.05  0.00  0.00  0.00  0.80  0.00  0.00  0.00
  WS02004412WS02004413    1.00   0.15  0.00  0.00  0.85  0.00  0.00  0.00  0.02  0.00
  WS02004410WS02004411    1.00   0.15  0.00  0.00  0.85  0.00  0.00  0.00  0.00  0.00
  WS02004409WS02004410    1.00   0.15  0.00  0.00  0.85  0.00  0.00  0.00  0.00  0.00
  WS02004407WS02004409    1.00   0.15  0.00  0.00  0.84  0.01  0.00  0.00  0.78  0.00
  WS02004406WS02004407    1.00   0.00  0.15  0.00  0.85  0.00  0.00  0.00  0.00  0.00
  WS02004405WS02004406    1.00   0.00  0.00  0.00  1.00  0.00  0.00  0.00  0.02  0.00
  WS02004404WS02004405    1.00   0.00  0.00  0.00  1.00  0.00  0.00  0.00  0.00  0.00
  WS02004403WS02004404    1.00   0.00  0.03  0.00  0.97  0.00  0.00  0.00  0.02  0.00
  WS02004402WS02004403    1.00   0.03  0.00  0.00  0.97  0.00  0.00  0.00  0.00  0.00
  WS02004139WS02001211    1.00   0.00  0.00  0.00  1.00  0.00  0.00  0.00  0.00  0.00
  WS02004138WS02004139    1.00   0.00  0.07  0.00  0.92  0.01  0.00  0.00  1.00  0.00
  WS02003067WS02003066    1.00   0.20  0.01  0.00  0.78  0.00  0.00  0.00  0.00  0.00
  WS02001213WS02003059    1.00   0.00  0.00  0.00  0.99  0.00  0.00  0.00  0.00  0.00
  WS02001212WS02001213    1.00   0.00  0.00  0.00  0.50  0.00  0.50  0.00  0.00  0.00
  WS02001211WS02001212    1.00   0.00  0.00  0.00  1.00  0.00  0.00  0.00  0.00  0.00
  WS02003072WS02003073    1.00   0.00  0.00  0.00  0.00  0.00  0.00  1.00  0.00  0.00
  WS02003069WS02003072    1.00   0.00  0.00  0.00  0.99  0.01  0.00  0.00  0.43  0.00
  WS02003060WS02003069    1.00   0.00  0.00  0.00  0.95  0.05  0.00  0.00  0.33  0.00
  WS02003059WS02003060    1.00   0.00  0.00  0.00  1.00  0.00  0.00  0.00  0.00  0.00
  HS02004901HS02004770    1.00   0.09  0.00  0.00  0.90  0.00  0.00  0.00  0.02  0.00
  HS02004876HS02004881    1.00   0.02  0.00  0.00  0.98  0.00  0.00  0.00  0.00  0.00
  HS02004870HS02004876    1.00   0.01  0.00  0.00  0.99  0.01  0.00  0.00  0.95  0.00
  HS02004842HS02004848    1.00   0.00  0.10  0.00  0.90  0.00  0.00  0.00  0.69  0.00
  HS02004837HS02004842    1.00   0.00  0.00  0.00  0.99  0.01  0.00  0.00  0.11  0.00
  HS02004830HS02004837    1.00   0.00  0.00  0.00  1.00  0.00  0.00  0.00  0.99  0.00
  HS02004824HS02004830    1.00   0.00  0.00  0.00  1.00  0.00  0.00  0.00  0.00  0.00
  HS02004817HS02004824    1.00   0.00  0.00  0.00  1.00  0.00  0.00  0.00  1.00  0.00
  HS02004770HS02004777    1.00   0.00  0.10  0.00  0.90  0.00  0.00  0.00  0.07  0.00
  HS02004799HS02004480    1.00   0.00  0.03  0.00  0.86  0.00  0.11  0.00  0.00  0.00
  HS02004792HS02004799    1.00   0.00  0.00  0.00  0.99  0.01  0.00  0.00  0.98  0.00
  HS02004788HS02004792    1.00   0.00  0.00  0.00  0.99  0.01  0.00  0.00  0.98  0.00
  HS02004785HS02004788    1.00   0.00  0.00  0.00  1.00  0.00  0.00  0.00  0.00  0.00
  HS02004777HS02004785    1.00   0.00  0.00  0.00  1.00  0.00  0.00  0.00  0.19  0.00
  HS02004480HS02004478    1.00   0.11  0.00  0.00  0.63  0.00  0.00  0.26  0.00  0.00
  HS02004479HS02004480    1.00   0.03  0.00  0.00  0.97  0.00  0.00  0.00  0.16  0.00
  HS02004862HS02004870    1.00   0.00  0.00  0.00  1.00  0.00  0.00  0.00  0.06  0.00
  HS02004848HS02004852    1.00   0.10  0.00  0.00  0.90  0.00  0.00  0.00  0.71  0.00
  HS02004856HS02004862    1.00   0.00  0.18  0.00  0.82  0.00  0.00  0.00  0.75  0.00
  HS02004852HS02004856    1.00   0.09  0.03  0.00  0.88  0.00  0.00  0.00  0.82  0.00
  HS02004802HS02004478    1.00   0.10  0.02  0.00  0.88  0.00  0.00  0.00  0.00  0.00
  HS02004478WS02006287    1.00   0.13  0.00  0.00  0.87  0.00  0.00  0.00  0.81  0.00
  HS02004817HS02004807    1.00   0.00  0.10  0.00  0.90  0.00  0.00  0.00  0.00  0.00
  HS02004807HS02004802    1.00   0.10  0.00  0.00  0.90  0.00  0.00  0.01  0.01  0.00
  YS02001759YS02001757    1.00   0.00  0.00  0.00  1.00  0.00  0.00  0.00  0.18  0.00
  YS02001762YS02001759    1.00   0.00  0.00  0.00  1.00  0.00  0.00  0.00  0.04  0.00
  YS02001765YS02001762    1.00   0.00  0.00  0.00  1.00  0.00  0.00  0.00  0.22  0.00
  YS02001770YS02001767    1.00   0.00  0.00  0.00  1.00  0.00  0.00  0.00  0.00  0.00
  YS02001774YS02001770    1.00   0.00  0.12  0.00  0.88  0.00  0.00  0.00  0.06  0.00
  YS02001779YS02001774    1.00   0.00  0.00  0.00  1.00  0.00  0.00  0.00  0.26  0.00
  YS02001649YS02001757    1.00   0.00  0.00  0.00  1.00  0.00  0.00  0.00  0.19  0.00
  YS02001767YS02001765    1.00   0.00  0.00  0.00  1.00  0.00  0.00  0.00  0.01  0.00
  YS02006561YS02001783    1.00   0.18  0.00  0.00  0.00  0.82  0.00  0.00  0.74  0.00
  YS02001783YS02001784    1.00   0.00  0.18  0.00  0.82  0.00  0.00  0.00  0.09  0.00
  YS02001784YS02001785    1.00   0.00  0.00  0.00  1.00  0.00  0.00  0.00  0.25  0.00
  YS02001788YS02001790    1.00   0.00  0.00  0.00  0.20  0.80  0.00  0.00  0.99  0.00
  YS02001790YS02001791    1.00   0.00  0.00  0.00  0.01  0.99  0.00  0.00  0.39  0.00
  YS02001791YS02001793    1.00   0.00  0.00  0.00  0.02  0.98  0.00  0.00  0.02  0.00
  YS02001910YS02001907    1.00   0.00  0.00  0.00  0.98  0.00  0.00  0.02  0.13  0.00
  YS02001786YS02001788    1.00   0.00  0.00  0.00  0.21  0.79  0.00  0.00  0.00  0.00
  YS02001915YS02001910    1.00   0.00  0.00  0.00  0.99  0.01  0.00  0.00  0.24  0.00
  YS02001918YS02001915    1.00   0.00  0.01  0.00  0.98  0.01  0.00  0.00  0.82  0.00
  YS02001923YS02001920    1.00   0.00  0.00  0.00  1.00  0.00  0.00  0.00  1.00  0.00
  YS02001926YS02001923    1.00   0.00  0.05  0.00  0.00  0.00  0.95  0.00  0.00  0.00
  YS02001929YS02001926    1.00   0.00  0.09  0.00  0.91  0.00  0.00  0.00  0.86  0.00
  YS02001920YS02001918    1.00   0.00  0.01  0.00  0.99  0.00  0.00  0.00  0.00  0.00
  YS02001629YS02163301    1.00   0.15  0.01  0.00  0.84  0.00  0.00  0.00  0.00  0.00
  YS02001619YS02001622    1.00   0.09  0.00  0.00  0.91  0.00  0.00  0.00  0.00  0.00
  YS02001622YS02001625    1.00   0.10  0.00  0.00  0.90  0.00  0.00  0.00  0.12  0.00
  YS02001625YS02001629    1.00   0.10  0.09  0.00  0.76  0.00  0.05  0.00  0.00  0.00
  YS02163301YS02001633    1.00   0.00  0.15  0.00  0.85  0.00  0.00  0.00  0.00  0.00
  YS02163601YS02164001    1.00   0.00  0.06  0.00  0.94  0.00  0.00  0.00  0.00  0.00
  YS02164001YS02001641    1.00   0.01  0.05  0.00  0.94  0.00  0.00  0.00  0.07  0.00
  YS02001641YS02001644    1.00   0.00  0.01  0.00  0.99  0.00  0.00  0.00  0.00  0.00
  YS02001647YS02001649    1.00   0.00  0.18  0.00  0.82  0.00  0.00  0.00  0.01  0.00
  YS02006553YS02006556    1.00   0.01  0.00  0.00  0.99  0.00  0.00  0.00  0.03  0.00
  YS02006556YS02006558    1.00   0.00  0.00  0.00  1.00  0.00  0.00  0.00  0.00  0.00
  YSB6556YSB1171          1.00   0.03  0.06  0.00  0.91  0.00  0.00  0.00  0.00  0.00
  YS02001907YS02006553    1.00   0.00  0.02  0.00  0.98  0.00  0.00  0.00  0.00  0.00
  YS02006558YS02006561    1.00   0.18  0.00  0.00  0.00  0.82  0.00  0.00  0.73  0.00
  YS02001633YS02163601    1.00   0.00  0.01  0.00  0.99  0.00  0.00  0.00  0.20  0.00
  YS02001644YS02001647    1.00   0.00  0.18  0.00  0.82  0.00  0.00  0.00  0.00  0.00
  YS02001745YS02001748    1.00   0.00  0.00  0.00  0.61  0.04  0.00  0.35  0.22  0.00
  YS02001748YS02001751    1.00   0.00  0.00  0.00  0.91  0.09  0.00  0.00  0.26  0.00
  YS02001751YS02001754    1.00   0.00  0.00  0.00  0.79  0.00  0.00  0.20  0.02  0.00
  YS02001754YS02001757    1.00   0.00  0.00  0.00  0.99  0.01  0.00  0.00  0.26  0.00
  YS02001882YS02001884    1.00   0.14  0.01  0.00  0.85  0.00  0.00  0.00  0.00  0.00
  YS02001884YS02001887    1.00   0.05  0.04  0.00  0.92  0.00  0.00  0.00  0.00  0.00
  YS02001890YS02001895    1.00   0.00  0.16  0.00  0.84  0.00  0.00  0.00  0.00  0.00
  YS02001895YS02001898    1.00   0.16  0.00  0.00  0.81  0.00  0.03  0.00  0.00  0.00
  YS02001898YS02001901    1.00   0.15  0.01  0.00  0.84  0.00  0.00  0.00  0.02  0.00
  YS02001901YS02001904    1.00   0.15  0.00  0.00  0.85  0.00  0.00  0.00  0.00  0.00
  YS02001904YS02001907    1.00   0.00  0.15  0.00  0.85  0.00  0.00  0.00  0.00  0.00
  YS02001887YS02001890    1.00   0.00  0.00  0.00  0.97  0.00  0.02  0.00  0.00  0.00
  YS02001652YS02001649    1.00   0.00  0.00  0.00  1.00  0.00  0.00  0.00  0.25  0.00
  YS02001655YS02001652    1.00   0.00  0.00  0.00  0.79  0.00  0.00  0.20  0.03  0.00
  YS02001658YS02001655    1.00   0.00  0.13  0.00  0.76  0.11  0.00  0.00  0.19  0.00
  YS02001661YS02001658    1.00   0.13  0.00  0.00  0.61  0.26  0.00  0.00  0.30  0.00
  YS02001664YS02001661    1.00   0.09  0.00  0.00  0.91  0.00  0.00  0.00  0.86  0.00
  YSB1154YSB6556          1.00   0.09  0.00  0.00  0.91  0.00  0.00  0.00  0.02  0.00
  YSB1174YSB1171          1.00   0.04  0.03  0.00  0.93  0.00  0.00  0.00  0.00  0.00
  YSB1171HS02004479       1.00   0.03  0.00  0.00  0.96  0.00  0.00  0.01  0.13  0.00
  HS02004881HS02006253    1.00   0.04  0.00  0.00  0.00  0.00  0.00  0.96  0.00  0.00
  YS02001793JiankangQianchi    1.00   0.00  0.00  0.00  0.58  0.42  0.00  0.00  0.65  0.00
  YS02001757CaochengTiaoxuchi    1.00   0.00  0.24  0.00  0.76  0.00  0.00  0.00  0.00  0.00
  WSF200WS02003060        1.00   0.00  0.04  0.00  0.72  0.23  0.00  0.00  0.79  0.00
  1                       1.00   0.00  0.00  0.00  0.00  1.00  0.00  0.00  0.54  0.00
  
  
  *************************
  Conduit Surcharge Summary
  *************************
  
  ----------------------------------------------------------------------------
                                                           Hours        Hours 
                         --------- Hours Full --------   Above Full   Capacity
  Conduit                Both Ends  Upstream  Dnstream   Normal Flow   Limited
  ----------------------------------------------------------------------------
  WS02006229WS02006228        0.01      0.01      0.01      0.42         0.01
  WS02006256WS02006235        2.55      2.56      5.44      2.25         0.01
  WS02006235WS02006234        0.01      0.01      0.01      2.40         0.01
  WS02006231WS02006230        0.01      0.01      0.01      3.18         0.01
  WS02006230WS02006229        0.01      0.01      0.01      3.68         0.01
  WS02006228WS02006109        0.01      0.01      0.01      1.28         0.01
  WS02006111WS02006112        0.01      0.01      0.40      0.01         0.01
  WS02004404WS02004405        0.01      0.01      0.01      3.67         0.01
  WS02003072WS02003073        0.01      0.01      0.01      2.59         0.01
  YS02001759YS02001757        4.23      4.23      4.71      0.01         0.01
  YS02001762YS02001759        4.07      4.07      4.23      0.01         0.01
  YS02001765YS02001762        3.83      3.83      4.07      0.01         0.01
  YS02001770YS02001767        3.62      3.62      3.64      0.01         0.06
  YS02001774YS02001770        3.46      3.46      3.97      0.01         0.01
  YS02001779YS02001774        2.45      2.45      3.97      0.01         0.01
  YS02001649YS02001757        4.11      4.11      4.71      0.01         0.01
  YS02001767YS02001765        3.64      3.64      3.83      0.01         0.01
  YS02001629YS02163301        3.34      3.34      3.50      0.01         0.01
  YS02001619YS02001622        0.38      0.38      0.65      0.01         0.01
  YS02001622YS02001625        0.65      0.65      3.02      0.01         0.01
  YS02001625YS02001629        0.38      0.38      3.02      0.01         0.01
  YS02163301YS02001633        3.50      3.50      3.82      0.01         0.01
  YS02163601YS02164001        3.80      3.80      4.08      0.01         0.01
  YS02164001YS02001641        3.80      3.80      3.89      0.01         0.01
  YS02001641YS02001644        3.89      3.89      3.92      0.01         0.06
  YS02001647YS02001649        2.98      2.98      4.11      0.01         0.01
  YS02001633YS02163601        3.71      3.71      4.08      0.01         0.01
  YS02001644YS02001647        2.98      2.98      3.92      0.01         0.01
  YS02001748YS02001751        0.01      0.01      0.89      0.01         0.01
  YS02001751YS02001754        0.89      0.89      2.67      0.01         0.01
  YS02001754YS02001757        2.99      2.99      4.71      0.01         0.01
  YS02001652YS02001649        3.07      3.07      4.11      0.01         0.01
  YS02001655YS02001652        1.19      1.19      2.88      0.01         0.01
  YS02001658YS02001655        0.01      0.01      1.19      0.01         0.01
  YS02001793JiankangQianchi        0.01      0.01      2.63      0.01         0.01
  YS02001757CaochengTiaoxuchi        0.01      0.01      4.71      0.01         0.01
  
  
  ***************
  Pumping Summary
  ***************
  
  ---------------------------------------------------------------------------------------------------------
                                                  Min       Avg       Max     Total     Power    % Time Off
                        Percent   Number of      Flow      Flow      Flow    Volume     Usage    Pump Curve
  Pump                 Utilized   Start-Ups       LPS       LPS       LPS  10^6 ltr     Kw-hr    Low   High
  ---------------------------------------------------------------------------------------------------------
  CC-Pump-1                0.00           0      0.00      0.00      0.00     0.000      0.00    0.0    0.0
  CC-Pump-2                0.00           0      0.00      0.00      0.00     0.000      0.00    0.0    0.0
  JK-Pump-1               48.93           5      0.00    130.02    300.00     1.765     32.03    0.0    0.0
  JK-Pump-2               25.52           5      0.00    122.41    683.00     0.845     17.19    0.0   97.1
  XR-Pump-1               78.73           4      0.00     82.23     95.00     1.853     39.36    0.0    0.0
  XR-Pump-2               76.60           4      0.00     79.81     95.00     1.739     36.80    0.0    0.0
  XR-Pump-3               70.22           6      0.00     78.86     95.00     1.568     32.93    0.0    0.0
  XR-Pump-4               70.22           6      0.00     78.86     95.00     1.568     32.93    0.0    0.0
  
  
  ***************************
  Link Pollutant Load Summary
  ***************************
  
  ------------------------------------------------------------------------------------------
                                 COD            SS            TN            TP         NH4-N
  Link                            kg            kg            kg            kg            kg
  ------------------------------------------------------------------------------------------
  WS02003066WSF200           152.889       248.396         8.856         1.010         5.291
  WS02006287WS02006284        82.854       136.497         5.794         0.690         3.528
  WS02006284WS02006280        83.279       137.180         5.834         0.695         3.553
  WS02006280WS02006229        83.259       137.146         5.832         0.695         3.552
  WS02006229WS02006228       150.633       244.292         8.626         0.980         5.146
  WS02006256WS02006235        61.125        96.210         2.612         0.269         1.498
  WS02006253WS02006251         7.046        12.259         0.242         0.023         0.132
  WS02006252WS02006251         0.000         0.000         0.000         0.000         0.000
  WS02006251WS02006249         7.607        13.164         0.295         0.029         0.165
  WS02006249WS02006248         7.591        13.127         0.293         0.029         0.164
  WS02006248WS02006247         7.739        13.367         0.299         0.030         0.168
  WS02006247WS02006245         8.238        14.145         0.323         0.032         0.182
  WS02006245WS02006243         8.957        15.278         0.350         0.035         0.196
  WS02006243WS02006242        10.974        18.487         0.426         0.042         0.239
  WS02006242WS02006240        14.692        24.351         0.573         0.057         0.322
  WS02006240WS02006239        18.381        30.123         0.729         0.073         0.412
  WS02006239WS02006238        22.385        36.322         0.908         0.092         0.515
  WS02006238WS02006235        24.930        40.249         1.019         0.103         0.579
  WS02006235WS02006234        67.657       107.625         2.824         0.289         1.613
  WS02006234WS02006232        68.060       108.256         2.844         0.291         1.625
  WS02006232WS02006231        67.866       107.949         2.833         0.290         1.619
  WS02006231WS02006230        67.332       107.108         2.808         0.287         1.604
  WS02006230WS02006229        67.716       107.694         2.826         0.289         1.614
  WS02006228WS02006109       150.533       244.141         8.604         0.977         5.132
  WS02006116WS02004401       158.803       257.525         9.274         1.059         5.545
  WS02006115WS02006116       158.963       257.768         9.293         1.062         5.558
  WS02006113WS02006111       158.105       256.252         9.329         1.068         5.585
  WS02006112WS02006115       159.535       258.690         9.338         1.067         5.585
  WS02006111WS02006112       158.135       256.302         9.326         1.067         5.583
  WS02006110WS02006113       158.392       256.715         9.352         1.070         5.599
  WS02006109WS02006110       159.046       257.771         9.406         1.077         5.632
  WS02004411WS02004412       155.332       252.228         9.025         1.030         5.394
  WS02004401WS02004402       158.248       256.639         9.228         1.054         5.517
  WS02004413WS02003067       153.363       249.104         8.889         1.014         5.312
  WS02004412WS02004413       154.467       250.893         8.967         1.023         5.359
  WS02004410WS02004411       155.895       253.089         9.064         1.034         5.418
  WS02004409WS02004410       156.422       253.909         9.101         1.039         5.440
  WS02004407WS02004409       156.666       254.261         9.119         1.041         5.451
  WS02004406WS02004407       156.556       254.053         9.114         1.040         5.449
  WS02004405WS02004406       157.832       256.073         9.214         1.052         5.510
  WS02004404WS02004405       158.036       256.330         9.226         1.054         5.517
  WS02004403WS02004404       157.299       255.143         9.149         1.044         5.469
  WS02004402WS02004403       157.882       256.072         9.195         1.050         5.497
  WS02004139WS02001211      1143.565      1829.713       108.885        13.589        67.986
  WS02004138WS02004139      1142.825      1828.529       108.813        13.580        67.941
  WS02003067WS02003066       152.972       248.529         8.862         1.011         5.295
  WS02001213WS02003059      1190.011      1904.027       113.344        14.146        70.773
  WS02001212WS02001213      1191.366      1906.194       113.476        14.163        70.855
  WS02001211WS02001212      1192.992      1908.796       113.630        14.182        70.952
  WS02003072WS02003073      1457.293      2335.555       133.220        16.534        82.953
  WS02003069WS02003072      1459.071      2338.374       133.387        16.555        83.057
  WS02003060WS02003069      1457.820      2336.338       133.251        16.538        82.972
  WS02003059WS02003060      1191.055      1905.696       113.440        14.158        70.833
  HS02004901HS02004770         1.374         2.373         0.028         0.002         0.013
  HS02004876HS02004881         6.026        10.427         0.225         0.022         0.125
  HS02004870HS02004876         4.835         8.320         0.209         0.021         0.118
  HS02004842HS02004848         0.776         1.296         0.018         0.001         0.008
  HS02004837HS02004842         5.425         8.723         0.482         0.060         0.299
  HS02004830HS02004837        45.941        73.954         4.180         0.519         2.604
  HS02004824HS02004830        46.693        75.157         4.252         0.528         2.649
  HS02004817HS02004824        49.806        80.497         4.346         0.536         2.698
  HS02004770HS02004777         5.416         9.431         0.124         0.008         0.056
  HS02004799HS02004480        30.071        49.966         1.705         0.194         1.009
  HS02004792HS02004799        28.809        47.575         1.728         0.199         1.029
  HS02004788HS02004792        20.507        33.818         1.419         0.167         0.858
  HS02004785HS02004788         6.907        11.827         0.276         0.027         0.151
  HS02004777HS02004785         6.424        11.053         0.231         0.022         0.124
  HS02004480HS02004478        33.958        56.960         1.727         0.193         1.011
  HS02004479HS02004480         8.407        14.211         0.453         0.052         0.271
  HS02004862HS02004870         3.742         6.305         0.186         0.020         0.108
  HS02004848HS02004852         0.776         1.301         0.018         0.001         0.008
  HS02004856HS02004862         1.617         2.836         0.035         0.002         0.016
  HS02004852HS02004856         0.774         1.298         0.018         0.001         0.008
  HS02004802HS02004478        49.204        80.033         4.096         0.501         2.535
  HS02004478WS02006287        83.032       136.784         5.811         0.692         3.538
  HS02004817HS02004807        48.417        78.277         4.214         0.519         2.616
  HS02004807HS02004802        49.970        81.255         4.169         0.511         2.581
  YS02001759YS02001757        46.119        72.678         1.281         0.102         0.670
  YS02001762YS02001759        25.677        40.969         0.846         0.074         0.459
  YS02001765YS02001762        25.497        40.629         0.872         0.078         0.476
  YS02001770YS02001767        23.257        36.925         0.593         0.041         0.298
  YS02001774YS02001770         4.204         6.733         0.130         0.011         0.069
  YS02001779YS02001774         4.135         6.643         0.228         0.025         0.135
  YS02001649YS02001757        63.231        96.626         1.593         0.122         0.787
  YS02001767YS02001765        25.701        40.915         0.897         0.080         0.492
  YS02006561YS02001783       113.192       178.225         4.306         0.424         2.422
  YS02001783YS02001784       113.130       178.135         4.302         0.423         2.419
  YS02001784YS02001785       120.510       189.955         5.015         0.513         2.865
  YS02001788YS02001790       121.209       191.090         5.088         0.522         2.911
  YS02001790YS02001791       122.210       192.698         5.186         0.534         2.973
  YS02001791YS02001793       122.151       192.606         5.182         0.534         2.970
  YS02001910YS02001907        46.511        73.091         2.634         0.289         1.560
  YS02001786YS02001788       120.766       190.374         5.043         0.516         2.883
  YS02001915YS02001910        46.425        72.894         2.601         0.284         1.539
  YS02001918YS02001915        29.915        46.607         2.195         0.262         1.344
  YS02001923YS02001920         9.899        14.568         0.265         0.021         0.137
  YS02001926YS02001923         9.516        13.950         0.226         0.016         0.113
  YS02001929YS02001926         9.208        13.448         0.194         0.012         0.093
  YS02001920YS02001918        29.850        46.495         2.183         0.261         1.336
  YS02001629YS02163301         9.992        15.351         0.244         0.015         0.112
  YS02001619YS02001622        12.849        19.563         0.314         0.019         0.143
  YS02001622YS02001625        12.125        18.532         0.295         0.018         0.134
  YS02001625YS02001629        11.138        17.088         0.270         0.016         0.124
  YS02163301YS02001633         9.685        14.885         0.237         0.015         0.110
  YS02163601YS02164001        30.304        46.116         0.794         0.062         0.400
  YS02164001YS02001641        29.865        45.439         0.770         0.059         0.386
  YS02001641YS02001644        29.888        45.485         0.759         0.058         0.379
  YS02001647YS02001649        47.665        72.223         1.118         0.082         0.548
  YS02006553YS02006556        84.916       133.616         3.537         0.363         2.027
  YS02006556YS02006558        84.861       133.507         3.506         0.359         2.006
  YSB6556YSB1171               3.795         6.484         0.153         0.017         0.089
  YS02001907YS02006553        84.875       133.549         3.537         0.363         2.027
  YS02006558YS02006561       113.202       178.235         4.306         0.424         2.422
  YS02001633YS02163601        30.817        46.821         0.777         0.059         0.386
  YS02001644YS02001647        48.326        73.146         1.135         0.084         0.556
  YS02001745YS02001748        20.057        31.296         0.616         0.048         0.324
  YS02001748YS02001751        20.150        31.559         0.674         0.056         0.362
  YS02001751YS02001754        19.360        30.397         0.660         0.056         0.357
  YS02001754YS02001757        20.296        31.963         0.806         0.076         0.451
  YS02001882YS02001884         0.281         0.425         0.011         0.001         0.006
  YS02001884YS02001887         1.085         1.682         0.038         0.004         0.021
  YS02001890YS02001895        39.271        61.735         0.930         0.077         0.480
  YS02001895YS02001898        39.158        61.571         0.924         0.076         0.477
  YS02001898YS02001901        39.065        61.444         0.921         0.076         0.475
  YS02001901YS02001904        39.182        61.662         0.944         0.079         0.490
  YS02001904YS02001907        40.072        63.132         1.045         0.092         0.554
  YS02001887YS02001890        40.101        63.019         0.996         0.085         0.521
  YS02001652YS02001649        17.423        27.177         0.508         0.041         0.253
  YS02001655YS02001652        18.140        28.245         0.537         0.044         0.268
  YS02001658YS02001655        17.401        26.947         0.422         0.029         0.193
  YS02001661YS02001658        17.892        27.576         0.421         0.027         0.189
  YS02001664YS02001661        17.949        27.622         0.423         0.028         0.190
  YSB1154YSB6556               3.268         5.644         0.089         0.008         0.048
  YSB1174YSB1171               2.694         4.669         0.110         0.012         0.064
  YSB1171HS02004479            8.275        14.009         0.439         0.051         0.262
  HS02004881HS02006253         6.722        11.687         0.238         0.022         0.130
  YS02001793JiankangQianchi       125.886       198.570         5.405         0.559         3.103
  YS02001757CaochengTiaoxuchi       122.650       190.642         3.275         0.256         1.669
  WSF200WS02003060           152.936       248.487         8.866         1.011         5.298
  1                         1469.924      2355.831       134.487        16.694        83.747
  CC-Pump-1                    0.000         0.000         0.000         0.000         0.000
  CC-Pump-2                    0.000         0.000         0.000         0.000         0.000
  JK-Pump-1                   68.083       107.156         2.904         0.299         1.665
  JK-Pump-2                   16.061        25.785         0.670         0.069         0.384
  XR-Pump-1                  325.024       520.039        30.969         3.865        19.338
  XR-Pump-2                  300.499       480.801        28.626         3.573        17.874
  XR-Pump-3                  259.636       415.420        24.703         3.082        15.423
  XR-Pump-4                  259.636       415.420        24.703         3.082        15.423
  

  Analysis begun on:  Sun Jul 11 16:06:00 2021
  Analysis ended on:  Sun Jul 11 16:06:01 2021
  Total elapsed time: 00:00:01