
  EPA STORM WATER MANAGEMENT MODEL - VERSION 5.1 (Build 5.3.0.dev0)
  --------------------------------------------------------------

  WARNING 04: minimum elevation drop used for Conduit WS02004404WS02004405
  WARNING 03: negative offset ignored for Link YS02001904YS02001907
  
  *********************************************************
  NOTE: The summary statistics displayed in this report are
  based on results found at every computational time step,  
  not just on results from each reporting time step.
  *********************************************************
  
  ****************
  Analysis Options
  ****************
  Flow Units ............... LPS
  Process Models:
    Rainfall/Runoff ........ YES
    RDII ................... NO
    Snowmelt ............... NO
    Groundwater ............ NO
    Flow Routing ........... YES
    Ponding Allowed ........ NO
    Water Quality .......... YES
  Infiltration Method ...... HORTON
  Flow Routing Method ...... DYNWAVE
  Surcharge Method ......... EXTRAN
  Starting Date ............ 08/28/2015 08:00:00
  Ending Date .............. 08/28/2015 15:50:00
  Antecedent Dry Days ...... 8.0
  Report Time Step ......... 00:01:00
  Wet Time Step ............ 00:01:00
  Dry Time Step ............ 00:01:00
  Routing Time Step ........ 5.00 sec
  Variable Time Step ....... YES
  Maximum Trials ........... 8
  Number of Threads ........ 4
  Head Tolerance ........... 0.001500 m
  
  
  **************************        Volume         Depth
  Runoff Quantity Continuity     hectare-m            mm
  **************************     ---------       -------
  Total Precipitation ......         1.927         4.218
  Evaporation Loss .........         0.000         0.000
  Infiltration Loss ........         0.452         0.990
  Surface Runoff ...........         1.044         2.286
  Final Storage ............         0.431         0.943
  Continuity Error (%) .....        -0.023
  
  
  **************************           COD            SS            TN            TP         NH4-N
  Runoff Quality Continuity             kg            kg            kg            kg            kg
  **************************    ----------    ----------    ----------    ----------    ----------
  Initial Buildup ..........     41378.656     70582.865      1804.177       168.684      1032.807
  Surface Buildup ..........        13.299        15.072         3.036         0.281         1.800
  Wet Deposition ...........         0.000         0.000         0.000         0.000         0.000
  Sweeping Removal .........         0.000         0.000         0.000         0.000         0.000
  Infiltration Loss ........        17.043        28.723         0.351         0.023         0.164
  BMP Removal ..............         0.000         0.000         0.000         0.000         0.000
  Surface Runoff ...........       524.374       860.269        10.941         0.695         5.141
  Remaining Buildup ........     40850.374     69708.681      1795.916       168.246      1029.301
  Continuity Error (%) .....         0.000         0.000         0.000         0.000         0.000
  
  
  **************************        Volume        Volume
  Flow Routing Continuity        hectare-m      10^6 ltr
  **************************     ---------     ---------
  Dry Weather Inflow .......         0.616         6.165
  Wet Weather Inflow .......         1.043        10.434
  Groundwater Inflow .......         0.000         0.000
  RDII Inflow ..............         0.000         0.000
  External Inflow ..........         0.102         1.024
  External Outflow .........         1.337        13.367
  Flooding Loss ............         0.148         1.482
  Evaporation Loss .........         0.000         0.000
  Exfiltration Loss ........         0.000         0.000
  Initial Stored Volume ....         0.076         0.761
  Final Stored Volume ......         0.446         4.457
  Continuity Error (%) .....        -5.023
  
  
  **************************           COD            SS            TN            TP         NH4-N
  Quality Routing Continuity            kg            kg            kg            kg            kg
  **************************    ----------    ----------    ----------    ----------    ----------
  Dry Weather Inflow .......      1541.201      2465.922       147.955        18.494        92.472
  Wet Weather Inflow .......       524.196       860.003        10.937         0.695         5.139
  Groundwater Inflow .......         0.000         0.000         0.000         0.000         0.000
  RDII Inflow ..............         0.000         0.000         0.000         0.000         0.000
  External Inflow ..........       183.418       293.469        17.608         2.201        11.005
  External Outflow .........      1845.239      2972.847       158.897        19.557        98.514
  Flooding Loss ............        71.332       117.447         2.131         0.191         1.149
  Exfiltration Loss ........         0.000         0.000         0.000         0.000         0.000
  Mass Reacted .............         0.000         0.000         0.000         0.000         0.000
  Initial Stored Mass ......         0.000         0.000         0.000         0.000         0.000
  Final Stored Mass ........       218.868       347.597         8.003         0.768         4.428
  Continuity Error (%) .....         5.042         5.015         4.232         4.086         4.167
  
  
  *************************
  Highest Continuity Errors
  *************************
  Node YS02001774 (32.29%)
  Node HS02004842 (29.52%)
  Node JK-storage (-24.85%)
  Node YS02001884 (24.61%)
  Node YSB1171 (7.58%)
  
  
  ***************************
  Time-Step Critical Elements
  ***************************
  Link WS02006252WS02006251 (36.79%)
  Link WS02006280WS02006229 (15.81%)
  Link YS02001793JiankangQianchi (13.85%)
  Link WS02006238WS02006235 (6.65%)
  Link WS02006235WS02006234 (4.30%)
  
  
  ********************************
  Highest Flow Instability Indexes
  ********************************
  Link WS02006113WS02006111 (51)
  Link WS02006111WS02006112 (17)
  Link YS02164001YS02001641 (11)
  Link YS02001765YS02001762 (11)
  Link YS02001762YS02001759 (11)
  
  
  *************************
  Routing Time Step Summary
  *************************
  Minimum Time Step           :     0.08 sec
  Average Time Step           :     2.08 sec
  Maximum Time Step           :     5.00 sec
  Percent in Steady State     :    -0.00
  Average Iterations per Step :     2.64
  Percent Not Converging      :     3.79
  
  
  ***************************
  Subcatchment Runoff Summary
  ***************************
  
  ------------------------------------------------------------------------------------------------------------------------------
                            Total      Total      Total      Total     Imperv       Perv      Total       Total     Peak  Runoff
                           Precip      Runon       Evap      Infil     Runoff     Runoff     Runoff      Runoff   Runoff   Coeff
  Subcatchment                 mm         mm         mm         mm         mm         mm         mm    10^6 ltr      LPS
  ------------------------------------------------------------------------------------------------------------------------------
  sub0                       4.22       0.00       0.00       0.30       3.88       0.00       3.88        0.00     1.16   0.919
  sub1                       4.22       0.00       0.00       0.46       3.67       0.00       3.67        0.02     6.56   0.870
  sub2                       4.22       0.00       0.00       1.56       2.58       0.00       2.58        0.02     5.84   0.612
  sub3                       4.22       0.00       0.00       1.56       2.55       0.00       2.55        0.06    12.08   0.604
  sub4                       4.22       0.00       0.00       0.46       3.54       0.00       3.54        0.07    13.55   0.838
  sub5                       4.22       0.00       0.00       0.30       3.83       0.00       3.83        0.04    11.66   0.909
  sub7                       4.22       0.00       0.00       0.38       3.78       0.00       3.78        0.01     4.01   0.896
  sub8                       4.22       0.00       0.00       0.38       3.77       0.00       3.77        0.02     7.16   0.894
  sub9                       4.22       0.00       0.00       0.38       3.77       0.00       3.77        0.02     5.32   0.893
  sub10                      4.22       0.00       0.00       0.34       3.80       0.00       3.80        0.04    11.60   0.900
  sub11                      4.22       0.00       0.00       0.34       3.81       0.00       3.81        0.04    13.42   0.904
  sub12                      4.22       0.00       0.00       0.55       3.62       0.00       3.62        0.03    10.95   0.859
  sub14                      4.22       0.00       0.00       0.38       3.77       0.00       3.77        0.04    10.41   0.893
  sub15                      4.22       0.00       0.00       1.27       2.89       0.00       2.89        0.05    14.16   0.686
  sub16                      4.22       0.00       0.00       1.39       2.79       0.00       2.79        0.03     9.75   0.661
  sub17                      4.22       0.00       0.00       1.35       2.83       0.00       2.83        0.02     7.92   0.670
  sub22                      4.22       0.00       0.00       1.81       2.36       0.00       2.36        0.15    45.77   0.560
  sub23                      4.22       0.00       0.00       1.56       2.61       0.00       2.61        0.12    38.86   0.620
  sub60                      4.22       0.00       0.00       0.51       2.50       0.00       2.50        0.76    65.73   0.592
  sub61                      4.22       0.00       0.00       0.72       2.69       0.00       2.69        0.83    83.69   0.637
  sub62                      4.22       0.00       0.00       0.34       2.88       0.00       2.88        0.88    85.16   0.682
  sub63                      4.22       0.00       0.00       1.22       2.40       0.00       2.40        0.73    78.56   0.569
  sub64                      4.22       0.00       0.00       0.63       2.39       0.00       2.39        0.73    62.37   0.566
  sub65                      4.22       0.00       0.00       0.55       2.42       0.00       2.42        0.74    63.23   0.573
  sub66                      4.22       0.00       0.00       1.22       2.09       0.00       2.09        0.64    57.42   0.495
  sub67                      4.22       0.00       0.00       0.34       3.18       0.00       3.18        0.98   110.80   0.754
  sub68                      4.22       0.00       0.00       0.59       2.86       0.00       2.86        0.88    92.87   0.679
  sub69                      4.22       0.00       0.00       0.63       3.11       0.00       3.11        0.73    93.59   0.736
  sub70                      4.22       3.17       0.00       2.51       3.78       0.00       3.78        0.86    73.61   0.511
  sub71                      4.22       0.00       0.00       0.34       2.75       0.00       2.75        0.65    59.13   0.651
  sub72                      4.22       0.00       0.00       0.30       1.91       0.00       1.91        0.39    27.70   0.453
  1                          4.22       3.68       0.00       1.31       3.82       0.43       4.25        1.00    68.62   0.538
  2                          4.22       0.00       0.00       2.89       0.94       0.12       1.06        0.42    56.72   0.252
  
  
  ****************************
  Subcatchment Washoff Summary
  ****************************
  
  ------------------------------------------------------------------------------------------
                                 COD            SS            TN            TP         NH4-N
  Subcatchment                    kg            kg            kg            kg            kg
  ------------------------------------------------------------------------------------------
  sub0                         0.540         0.977         0.009         0.001         0.004
  sub1                         2.182         3.982         0.042         0.003         0.020
  sub2                         1.245         2.185         0.029         0.002         0.013
  sub3                         2.976         5.139         0.068         0.004         0.031
  sub4                         4.733         8.529         0.100         0.006         0.048
  sub5                         4.983         8.977         0.088         0.006         0.042
  sub7                         1.176         2.196         0.023         0.001         0.011
  sub8                         1.787         3.400         0.037         0.002         0.018
  sub9                         1.502         2.818         0.030         0.002         0.014
  sub10                        4.174         7.630         0.077         0.005         0.037
  sub11                        4.194         7.791         0.079         0.005         0.038
  sub12                        3.507         6.416         0.063         0.005         0.030
  sub14                        3.170         5.891         0.061         0.004         0.029
  sub15                        3.664         6.479         0.074         0.005         0.034
  sub16                        2.350         4.169         0.046         0.003         0.021
  sub17                        2.138         3.755         0.040         0.003         0.019
  sub22                       10.784        18.667         0.214         0.016         0.098
  sub23                        6.772        12.191         0.156         0.010         0.070
  sub60                       33.641        54.646         0.742         0.042         0.353
  sub61                       43.072        69.808         0.857         0.054         0.410
  sub62                       45.619        75.314         0.971         0.056         0.464
  sub63                       32.625        52.336         0.732         0.049         0.331
  sub64                       39.195        61.229         0.771         0.053         0.364
  sub65                       40.200        63.076         0.799         0.053         0.378
  sub66                       24.218        38.347         0.565         0.034         0.259
  sub67                       68.669       112.642         1.270         0.088         0.610
  sub68                       48.902        80.313         1.011         0.063         0.478
  sub69                       46.587        77.887         0.926         0.061         0.438
  sub70                       68.259       113.915         1.488         0.097         0.682
  sub71                       30.255        50.332         0.693         0.037         0.330
  sub72                       18.440        28.216         0.374         0.024         0.179
  1                           32.257        54.262         0.734         0.048         0.330
  2                            5.403         8.556         0.187         0.011         0.077
  ------------------------------------------------------------------------------------------
  System                     639.220      1052.071        13.355         0.853         6.261
  
  
  ******************
  Node Depth Summary
  ******************
  
  ---------------------------------------------------------------------------------
                                 Average  Maximum  Maximum  Time of Max    Reported
                                   Depth    Depth      HGL   Occurrence   Max Depth
  Node                 Type       Meters   Meters   Meters  days hr:min      Meters
  ---------------------------------------------------------------------------------
  WS02001211           JUNCTION     0.67     0.79     5.62     0  05:10        0.79
  WS02001212           JUNCTION     0.39     0.50     5.56     0  05:11        0.50
  WS02001213           JUNCTION     0.63     0.75     5.51     0  05:11        0.75
  WS02003069           JUNCTION     0.41     0.58     5.17     0  05:13        0.58
  WS02003072           JUNCTION     0.48     0.64     5.01     0  05:13        0.64
  WS02003073           JUNCTION     0.28     0.39     4.46     0  05:14        0.39
  WS02003060           JUNCTION     0.37     0.51     5.44     0  05:12        0.51
  WS02003066           JUNCTION     0.19     0.30     5.85     0  05:18        0.30
  WS02003059           JUNCTION     0.68     0.81     5.49     0  05:12        0.81
  WS02003067           JUNCTION     0.47     0.70     6.02     0  05:18        0.70
  WS02004401           JUNCTION     0.57     0.86     6.86     0  05:15        0.86
  WS02004402           JUNCTION     0.60     0.88     6.84     0  05:16        0.88
  WS02004403           JUNCTION     0.63     0.90     6.83     0  05:16        0.90
  WS02004404           JUNCTION     0.70     0.97     6.82     0  05:16        0.97
  WS02004406           JUNCTION     0.71     0.96     6.79     0  05:16        0.96
  WS02004409           JUNCTION     0.38     0.67     6.44     0  05:16        0.67
  WS02004410           JUNCTION     0.40     0.69     6.41     0  05:17        0.69
  WS02004411           JUNCTION     0.42     0.70     6.38     0  05:17        0.70
  WS02004412           JUNCTION     0.44     0.70     6.34     0  05:17        0.70
  WS02004413           JUNCTION     0.58     0.86     6.33     0  05:18        0.86
  WS02004405           JUNCTION     0.70     0.96     6.81     0  05:16        0.96
  WS02006109           JUNCTION     0.65     0.99     7.61     0  05:01        0.99
  WS02006110           JUNCTION     0.66     0.93     7.52     0  05:01        0.93
  WS02006111           JUNCTION     0.18     0.29     7.00     0  05:01        0.29
  WS02006112           JUNCTION     0.73     1.06     6.94     0  05:15        1.05
  WS02006113           JUNCTION     0.27     0.46     7.35     0  05:02        0.46
  WS02006115           JUNCTION     0.46     0.76     6.90     0  05:15        0.76
  WS02006116           JUNCTION     0.54     0.84     6.88     0  05:15        0.84
  WS02006230           JUNCTION     0.60     1.13     7.88     0  05:00        1.12
  WS02006231           JUNCTION     0.39     0.88     8.00     0  05:00        0.87
  WS02006232           JUNCTION     0.52     1.07     8.11     0  05:01        1.07
  WS02006234           JUNCTION     0.44     1.08     8.23     0  05:01        1.07
  WS02006235           JUNCTION     0.48     1.17     8.34     0  05:01        1.16
  WS02006238           JUNCTION     0.50     1.20     8.34     0  05:01        1.19
  WS02006240           JUNCTION     0.41     1.14     8.44     0  05:01        1.14
  WS02006242           JUNCTION     0.46     1.23     8.49     0  05:28        1.21
  WS02006243           JUNCTION     0.36     1.13     8.55     0  05:28        1.12
  WS02006245           JUNCTION     0.34     1.12     8.60     0  05:28        1.11
  WS02006247           JUNCTION     0.35     1.13     8.63     0  05:00        1.13
  WS02006248           JUNCTION     0.31     1.08     8.67     0  05:28        1.07
  WS02006249           JUNCTION     0.34     1.09     8.69     0  05:00        1.09
  WS02006239           JUNCTION     0.45     1.18     8.39     0  05:01        1.17
  WS02006251           JUNCTION     0.32     1.36     9.03     0  05:28        1.14
  WS02006252           JUNCTION     0.21     0.90     9.14     0  05:28        0.68
  WS02006253           JUNCTION     0.35     1.41     9.05     0  05:28        1.17
  WS02006256           JUNCTION     1.28     2.35     9.28     0  00:00        2.35
  WS02004138           JUNCTION     0.15     0.20     7.45     0  00:00        0.19
  WS02004139           JUNCTION     0.62     0.73     5.64     0  05:10        0.73
  WS02004407           JUNCTION     0.17     0.30     6.61     0  05:16        0.30
  WS02006228           JUNCTION     0.64     1.04     7.69     0  05:01        1.03
  WS02006229           JUNCTION     0.61     1.03     7.73     0  05:01        1.03
  WS02006280           JUNCTION     0.05     0.14     8.41     0  02:14        0.14
  WS02006284           JUNCTION     0.34     0.47     8.87     0  02:14        0.47
  WS02006287           JUNCTION     0.07     0.20     9.15     0  02:14        0.20
  WSF200               JUNCTION     0.17     0.31     5.55     0  05:19        0.31
  HS02004901           JUNCTION     0.10     0.22    10.04     0  02:12        0.22
  HS02004881           JUNCTION     0.00     0.02     9.05     0  02:14        0.02
  HS02004876           JUNCTION     0.03     0.10     9.13     0  02:13        0.10
  HS02004870           JUNCTION     0.01     0.04     9.32     0  02:14        0.04
  HS02004862           JUNCTION     0.01     0.04     9.43     0  02:15        0.04
  HS02004856           JUNCTION     0.07     0.10     9.53     0  02:14        0.10
  HS02004852           JUNCTION     0.01     0.02     9.54     0  02:15        0.02
  HS02004848           JUNCTION     0.01     0.02     9.63     0  02:13        0.02
  HS02004842           JUNCTION     0.33     0.36     9.63     0  02:13        0.36
  HS02004837           JUNCTION     0.02     0.05     9.63     0  02:13        0.05
  HS02004830           JUNCTION     0.03     0.06     9.53     0  02:14        0.06
  HS02004824           JUNCTION     0.02     0.04     9.44     0  02:16        0.04
  HS02004817           JUNCTION     0.41     0.51     9.36     0  02:15        0.51
  HS02004807           JUNCTION     0.10     0.19     9.36     0  02:15        0.19
  HS02004802           JUNCTION     0.14     0.23     9.36     0  02:14        0.23
  HS02004799           JUNCTION     0.09     0.24     9.45     0  02:12        0.24
  HS02004792           JUNCTION     0.02     0.09     9.61     0  02:12        0.09
  HS02004788           JUNCTION     0.02     0.07     9.97     0  02:13        0.07
  HS02004785           JUNCTION     0.03     0.12    10.03     0  02:13        0.12
  HS02004777           JUNCTION     0.12     0.24    10.04     0  02:12        0.24
  HS02004770           JUNCTION     0.09     0.21    10.04     0  02:12        0.21
  HS02004480           JUNCTION     0.06     0.18     9.43     0  02:13        0.18
  HS02004479           JUNCTION     0.09     0.22     9.43     0  02:13        0.22
  HS02004478           JUNCTION     0.04     0.12     9.34     0  02:14        0.12
  YS02001745           JUNCTION     0.31     0.55     8.07     0  04:52        0.55
  YS02001748           JUNCTION     0.65     0.99     8.07     0  04:52        0.99
  YS02001751           JUNCTION     0.82     1.19     8.07     0  04:52        1.19
  YS02001754           JUNCTION     1.06     1.46     8.07     0  04:52        1.46
  YS02001762           JUNCTION     1.24     1.67     8.07     0  04:52        1.67
  YS02001765           JUNCTION     1.20     1.62     8.07     0  04:52        1.62
  YS02001767           JUNCTION     1.16     1.58     8.07     0  04:52        1.58
  YS02001770           JUNCTION     1.16     1.57     8.07     0  04:52        1.57
  YS02001774           JUNCTION     1.22     1.64     8.07     0  04:52        1.64
  YS02001779           JUNCTION     0.98     1.38     8.07     0  04:52        1.38
  YS02001882           JUNCTION     0.24     0.42     7.14     0  02:45        0.42
  YS02001884           JUNCTION     0.34     0.52     7.14     0  02:45        0.52
  YS02001759           JUNCTION     1.28     1.70     8.07     0  04:58        1.70
  YS02001887           JUNCTION     0.41     0.60     7.14     0  02:45        0.60
  YS02001890           JUNCTION     0.44     0.63     7.14     0  02:45        0.63
  YS02001898           JUNCTION     0.22     0.39     7.12     0  02:46        0.39
  YS02001901           JUNCTION     0.33     0.51     7.12     0  02:46        0.51
  YS02001904           JUNCTION     0.31     0.49     7.12     0  02:46        0.49
  YS02001907           JUNCTION     0.64     0.83     7.12     0  02:46        0.83
  YS02001910           JUNCTION     0.43     0.61     7.12     0  02:46        0.61
  YS02001915           JUNCTION     0.23     0.40     7.12     0  02:46        0.40
  YS02001918           JUNCTION     0.07     0.09     7.16     0  03:03        0.09
  YS02001619           JUNCTION     0.78     1.14     8.07     0  04:51        1.14
  YS02001629           JUNCTION     1.11     1.52     8.07     0  04:51        1.52
  YS02001641           JUNCTION     1.21     1.63     8.07     0  04:52        1.63
  YS02001644           JUNCTION     1.22     1.64     8.07     0  04:52        1.64
  YS02001652           JUNCTION     1.07     1.47     8.07     0  04:52        1.47
  YS02001655           JUNCTION     0.85     1.22     8.07     0  04:52        1.22
  YS02001920           JUNCTION     0.16     0.20     7.20     0  03:02        0.20
  YS02001923           JUNCTION     0.06     0.08     7.34     0  03:01        0.08
  YS02001926           JUNCTION     0.13     0.17     7.61     0  03:01        0.17
  YS02001929           JUNCTION     0.06     0.08     7.77     0  03:01        0.08
  YS02001658           JUNCTION     0.60     0.93     8.07     0  04:52        0.92
  YS02001661           JUNCTION     0.41     0.66     8.07     0  04:52        0.66
  YS02001664           JUNCTION     0.07     0.14     8.07     0  04:52        0.14
  YS02001622           JUNCTION     0.80     1.17     8.07     0  04:51        1.17
  YS02001633           JUNCTION     1.20     1.62     8.07     0  04:51        1.62
  YS02001649           JUNCTION     1.25     1.68     8.07     0  04:52        1.68
  YS02001757           JUNCTION     1.37     1.80     8.07     0  04:52        1.80
  YS02001895           JUNCTION     0.21     0.38     7.13     0  02:45        0.38
  YS02001625           JUNCTION     1.07     1.47     8.07     0  04:51        1.47
  YS02163301           JUNCTION     1.14     1.55     8.07     0  04:51        1.55
  YS02163601           JUNCTION     1.25     1.67     8.07     0  04:51        1.67
  YS02164001           JUNCTION     1.19     1.61     8.07     0  04:52        1.61
  YS02001647           JUNCTION     1.05     1.46     8.07     0  04:52        1.46
  YSB1154              JUNCTION     0.23     0.37     9.43     0  02:13        0.37
  YSB6556              JUNCTION     0.12     0.26     9.43     0  02:13        0.26
  YSB1174              JUNCTION     0.18     0.32     9.43     0  02:13        0.32
  YSB1171              JUNCTION     0.38     0.52     9.43     0  02:13        0.52
  YS02006553           JUNCTION     0.64     0.84     7.12     0  02:46        0.84
  YS02006561           JUNCTION     0.12     0.21     6.87     0  02:46        0.21
  YS02006556           JUNCTION     0.61     0.81     7.12     0  02:46        0.81
  YS02006558           JUNCTION     0.66     0.85     7.12     0  02:46        0.85
  YS02001783           JUNCTION     0.20     0.53     6.67     0  03:27        0.53
  YS02001784           JUNCTION     0.24     0.60     6.66     0  03:26        0.59
  YS02001786           JUNCTION     0.21     0.62     6.65     0  03:26        0.62
  YS02001788           JUNCTION     0.15     0.67     6.64     0  03:27        0.65
  YS02001790           JUNCTION     0.19     0.99     6.64     0  03:27        0.98
  YS02001791           JUNCTION     0.14     1.15     6.62     0  03:26        1.14
  YS02001793           JUNCTION     0.14     1.78     6.61     0  03:27        1.77
  WSC                  OUTFALL      0.28     0.39     1.06     0  05:14        0.39
  JK-storage           STORAGE      1.40     5.80     6.60     0  03:26        5.80
  CC-storage           STORAGE      0.69     1.06     8.06     0  04:50        1.06
  XR-storage           STORAGE      1.75     5.77     3.77     0  06:15        5.77
  
  
  *******************
  Node Inflow Summary
  *******************
  
  -------------------------------------------------------------------------------------------------
                                  Maximum  Maximum                  Lateral       Total        Flow
                                  Lateral    Total  Time of Max      Inflow      Inflow     Balance
                                   Inflow   Inflow   Occurrence      Volume      Volume       Error
  Node                 Type           LPS      LPS  days hr:min    10^6 ltr    10^6 ltr     Percent
  -------------------------------------------------------------------------------------------------
  WS02001211           JUNCTION      7.35   388.75     0  03:10       0.207        7.98       0.495
  WS02001212           JUNCTION      0.00   390.04     0  03:12           0        7.94       0.298
  WS02001213           JUNCTION      0.00   391.36     0  03:12           0        7.92       0.332
  WS02003069           JUNCTION      0.32   933.20     0  05:12     0.00902        13.4       0.190
  WS02003072           JUNCTION      0.00   932.84     0  05:13           0        13.4       0.245
  WS02003073           JUNCTION      1.82   934.47     0  05:13      0.0514        13.4       0.274
  WS02003060           JUNCTION     16.53   932.96     0  05:12       0.466        13.4       0.183
  WS02003066           JUNCTION      0.00   545.94     0  05:18           0        5.12       0.047
  WS02003059           JUNCTION      0.00   393.65     0  03:11           0        7.89       0.469
  WS02003067           JUNCTION      0.00   545.95     0  05:18           0        5.12       0.111
  WS02004401           JUNCTION      0.00   547.58     0  05:15           0        5.27       0.283
  WS02004402           JUNCTION      0.00   547.25     0  05:16           0        5.25       0.276
  WS02004403           JUNCTION      0.00   547.05     0  05:16           0        5.24       0.258
  WS02004404           JUNCTION      0.16   547.01     0  05:16     0.00457        5.23       0.203
  WS02004406           JUNCTION      0.00   547.06     0  05:16           0        5.21       0.497
  WS02004409           JUNCTION      0.00   546.41     0  05:16           0        5.18       0.139
  WS02004410           JUNCTION      0.00   546.23     0  05:17           0        5.17       0.170
  WS02004411           JUNCTION      0.00   546.12     0  05:17           0        5.16       0.187
  WS02004412           JUNCTION      0.00   546.05     0  05:17           0        5.15       0.222
  WS02004413           JUNCTION      0.00   546.02     0  05:17           0        5.14       0.361
  WS02004405           JUNCTION      0.04   546.98     0  05:16     0.00107        5.22       0.310
  WS02006109           JUNCTION      1.23   551.03     0  05:01      0.0347        5.34       0.310
  WS02006110           JUNCTION      0.00   550.81     0  05:01           0        5.32       0.310
  WS02006111           JUNCTION      0.00   571.42     0  05:15           0        5.29       0.052
  WS02006112           JUNCTION      7.92   552.61     0  05:01      0.0242        5.32       0.406
  WS02006113           JUNCTION      0.00   551.24     0  05:01           0         5.3       0.137
  WS02006115           JUNCTION      0.00   551.26     0  05:30           0        5.29       0.240
  WS02006116           JUNCTION      0.00   548.37     0  05:15           0        5.28       0.240
  WS02006230           JUNCTION     10.28   531.72     0  05:01        0.29        4.49       0.257
  WS02006231           JUNCTION      0.00   521.35     0  05:01           0        4.21       0.185
  WS02006232           JUNCTION      0.00   521.68     0  05:00           0        4.22       0.353
  WS02006234           JUNCTION      0.00   522.52     0  05:00           0        4.23       0.112
  WS02006235           JUNCTION      0.00   522.98     0  05:00           0        4.36       0.237
  WS02006238           JUNCTION      0.00   418.49     0  05:40           0        2.04       0.317
  WS02006240           JUNCTION      0.00   417.26     0  05:40           0        1.94       0.523
  WS02006242           JUNCTION      0.00   416.87     0  05:40           0        1.91       0.673
  WS02006243           JUNCTION      0.00   416.43     0  05:40           0        1.88       0.252
  WS02006245           JUNCTION      0.00   415.62     0  05:40           0        1.88       0.584
  WS02006247           JUNCTION      0.00   415.25     0  05:40           0        1.88       0.396
  WS02006248           JUNCTION      0.00   414.83     0  05:40           0        1.88       0.198
  WS02006249           JUNCTION      0.00   433.39     0  05:00           0        1.99       0.538
  WS02006239           JUNCTION      0.00   418.27     0  05:40           0        1.99       0.386
  WS02006251           JUNCTION      0.08   415.09     0  05:00     0.00217        2.02       0.386
  WS02006252           JUNCTION      0.00   400.00     0  05:00           0        1.86       0.023
  WS02006253           JUNCTION      1.16    79.72     0  04:58     0.00314        0.16       2.378
  WS02006256           JUNCTION      0.00   983.00     0  00:00           0         3.8      -0.017
  WS02004138           JUNCTION      0.00   380.00     0  00:00           0        7.81       0.078
  WS02004139           JUNCTION      0.32   396.51     0  00:00     0.00905        7.81       0.570
  WS02004407           JUNCTION      0.00   546.65     0  05:16           0        5.18       0.069
  WS02006228           JUNCTION      0.00   549.99     0  05:01           0        5.31       0.257
  WS02006229           JUNCTION      0.00   546.99     0  05:00           0        5.33       0.243
  WS02006280           JUNCTION      0.00   185.94     0  02:14           0       0.851       0.009
  WS02006284           JUNCTION      0.10   185.94     0  02:14      0.0027       0.852       0.135
  WS02006287           JUNCTION      0.00   185.86     0  02:14           0        0.85       0.084
  WSF200               JUNCTION      0.00   545.93     0  05:18           0        5.11       0.034
  HS02004901           JUNCTION      9.75     9.75     0  02:07      0.0292      0.0293       6.372
  HS02004881           JUNCTION      4.01    35.09     0  02:13      0.0127       0.133       0.055
  HS02004876           JUNCTION      6.56    31.34     0  02:14      0.0244       0.121       0.434
  HS02004870           JUNCTION      7.16    24.94     0  02:14      0.0241      0.0965       0.111
  HS02004862           JUNCTION      6.04    18.26     0  02:14      0.0297      0.0726       0.231
  HS02004856           JUNCTION      5.32    12.28     0  02:14      0.0181      0.0444       3.355
  HS02004852           JUNCTION      0.00     7.30     0  02:14           0      0.0263       0.187
  HS02004848           JUNCTION     12.08    12.08     0  02:16      0.0573      0.0573       0.076
  HS02004842           JUNCTION      0.00     5.12     0  02:24           0       0.044      41.877
  HS02004837           JUNCTION     17.95    22.47     0  02:13       0.221       0.252       0.324
  HS02004830           JUNCTION      0.15    22.60     0  02:13     0.00423       0.242       0.510
  HS02004824           JUNCTION     13.60    36.07     0  02:16      0.0751       0.316       0.171
  HS02004817           JUNCTION      0.60    36.67     0  02:16      0.0169       0.333       5.272
  HS02004807           JUNCTION     13.42    49.00     0  02:15      0.0443        0.36       1.187
  HS02004802           JUNCTION      0.00    49.20     0  02:16           0       0.356       1.153
  HS02004799           JUNCTION     10.41   116.53     0  02:11      0.0358       0.438       0.539
  HS02004792           JUNCTION     46.05   106.31     0  02:11       0.157       0.402       0.104
  HS02004788           JUNCTION     15.83    61.85     0  02:12      0.0969       0.246       0.160
  HS02004785           JUNCTION      0.15    46.43     0  02:12     0.00423       0.151       0.318
  HS02004777           JUNCTION      0.03    46.78     0  02:10    0.000846       0.151       3.540
  HS02004770           JUNCTION     38.86    47.77     0  02:09       0.125       0.152       2.077
  HS02004480           JUNCTION      0.00   137.47     0  02:13           0       0.509       0.139
  HS02004479           JUNCTION      0.00    21.35     0  02:14           0      0.0842       0.873
  HS02004478           JUNCTION      0.00   185.85     0  02:14           0       0.851       0.069
  YS02001745           JUNCTION     65.74    91.52     0  03:57       0.757       0.764       0.814
  YS02001748           JUNCTION      0.04   131.92     0  03:59     0.00127       0.772       2.635
  YS02001751           JUNCTION      0.01   171.86     0  02:57     0.00031       0.745       3.194
  YS02001754           JUNCTION      0.26   105.38     0  02:56     0.00733       0.718       3.543
  YS02001762           JUNCTION      0.00   119.78     0  02:56           0       0.808       2.816
  YS02001765           JUNCTION      0.00   107.95     0  02:58           0       0.811       3.168
  YS02001767           JUNCTION      0.54   142.19     0  02:59      0.0151       0.833       4.494
  YS02001770           JUNCTION     85.32   145.22     0  02:58       0.888       0.909       3.714
  YS02001774           JUNCTION      0.00    67.90     0  02:58           0      0.0806      47.699
  YS02001779           JUNCTION      0.01    68.75     0  02:58    0.000141      0.0338      85.348
  YS02001882           JUNCTION      0.00     3.21     0  02:05           0     0.00479      51.074
  YS02001884           JUNCTION      0.00     9.48     0  02:05           0      0.0193      32.644
  YS02001759           JUNCTION     83.73   199.96     0  02:56       0.829         1.6       1.505
  YS02001887           JUNCTION    111.25   111.25     0  02:35       0.993           1       0.706
  YS02001890           JUNCTION      0.00   110.37     0  02:37           0        0.98       0.793
  YS02001898           JUNCTION      0.00   109.87     0  02:40           0       0.969       0.219
  YS02001901           JUNCTION      0.00   109.71     0  02:41           0       0.968       0.562
  YS02001904           JUNCTION      0.00   109.38     0  02:42           0       0.966       0.522
  YS02001907           JUNCTION      0.00   197.59     0  02:48           0        2.07       1.069
  YS02001910           JUNCTION      0.00    89.48     0  02:57           0        1.11       0.908
  YS02001915           JUNCTION     59.14    88.99     0  02:55       0.649        1.12       0.396
  YS02001918           JUNCTION      0.00    30.61     0  03:02           0       0.468       0.230
  YS02001619           JUNCTION     57.42    57.42     0  02:49        0.64        0.64       1.966
  YS02001629           JUNCTION      0.00   112.22     0  03:03           0       0.559       5.451
  YS02001641           JUNCTION      0.00   137.12     0  02:58           0         1.2       1.817
  YS02001644           JUNCTION     62.41   196.25     0  02:59       0.726         1.9       1.415
  YS02001652           JUNCTION      0.00    99.98     0  02:59           0       0.674       3.616
  YS02001655           JUNCTION      0.15   163.24     0  02:54     0.00434         0.7       3.615
  YS02001920           JUNCTION      2.87    30.62     0  03:01      0.0809        0.47       0.421
  YS02001923           JUNCTION      0.04    27.75     0  03:01     0.00106       0.389       0.074
  YS02001926           JUNCTION      0.05    27.75     0  03:01     0.00147        0.39       0.527
  YS02001929           JUNCTION     27.70    27.70     0  03:01       0.389       0.389       0.071
  YS02001658           JUNCTION      0.00   104.90     0  04:02           0       0.719       2.893
  YS02001661           JUNCTION      0.00    78.56     0  02:37           0       0.728       1.666
  YS02001664           JUNCTION     78.56    78.56     0  02:37       0.726       0.726       0.009
  YS02001622           JUNCTION      0.00    93.87     0  03:02           0       0.627       5.377
  YS02001633           JUNCTION     63.43   130.33     0  03:01       0.748        1.26       2.612
  YS02001649           JUNCTION      0.00   306.28     0  03:00           0        2.48       1.561
  YS02001757           JUNCTION      0.00   479.88     0  02:56           0        4.68       2.049
  YS02001895           JUNCTION      0.00   110.03     0  02:38           0       0.972       0.368
  YS02001625           JUNCTION      0.00   100.72     0  03:04           0       0.596       6.997
  YS02163301           JUNCTION      0.00    82.62     0  03:04           0       0.537       4.798
  YS02163601           JUNCTION      0.11   143.89     0  03:00      0.0031        1.22       2.542
  YS02164001           JUNCTION      0.00   141.59     0  02:59           0         1.2       1.774
  YS02001647           JUNCTION      0.00   192.00     0  02:59           0        1.86       1.575
  YSB1154              JUNCTION     11.66    11.66     0  02:11      0.0434      0.0446       3.345
  YSB6556              JUNCTION      0.00    11.56     0  02:12           0      0.0455       2.810
  YSB1174              JUNCTION     10.95    10.95     0  02:07      0.0317      0.0324       4.125
  YSB1171              JUNCTION      0.00    21.31     0  02:12           0      0.0834       8.199
  YS02006553           JUNCTION      0.00   197.67     0  02:49           0        2.05       0.694
  YS02006561           JUNCTION      0.00   290.36     0  02:46           0        2.91       0.022
  YS02006556           JUNCTION      0.00   197.75     0  02:49           0        2.06       0.500
  YS02006558           JUNCTION     93.75   290.37     0  02:46       0.905        2.94       0.153
  YS02001783           JUNCTION      0.00   290.36     0  02:46           0        2.91       0.051
  YS02001784           JUNCTION      1.06   291.42     0  02:46      0.0299        2.94       0.083
  YS02001786           JUNCTION      0.06   291.47     0  02:47     0.00159        2.94       0.080
  YS02001788           JUNCTION      0.07   306.49     0  03:33       0.002        2.94       0.046
  YS02001790           JUNCTION      0.15   365.15     0  03:33     0.00437        2.94       0.040
  YS02001791           JUNCTION      0.00   412.18     0  03:33           0        2.94       0.024
  YS02001793           JUNCTION      0.00   446.88     0  03:35           0        2.95       0.012
  WSC                  OUTFALL       0.00   934.30     0  05:14           0        13.4       0.000
  JK-storage           STORAGE       0.00   596.89     0  04:50           0         3.1     -19.904
  CC-storage           STORAGE       0.00   459.90     0  02:56           0        4.58       1.195
  XR-storage           STORAGE     317.22   317.22     0  02:47        7.06        7.66      -1.872
  
  
  **********************
  Node Surcharge Summary
  **********************
  
  Surcharging occurs when water rises above the top of the highest conduit.
  ---------------------------------------------------------------------
                                               Max. Height   Min. Depth
                                   Hours       Above Crown    Below Rim
  Node                 Type      Surcharged         Meters       Meters
  ---------------------------------------------------------------------
  WS02006109           JUNCTION        1.15          0.174        1.646
  WS02006110           JUNCTION        0.47          0.023        1.827
  WS02006112           JUNCTION        0.57          0.057        1.623
  WS02006230           JUNCTION        0.42          0.051        1.519
  WS02006231           JUNCTION        0.58          0.167        1.363
  WS02006232           JUNCTION        1.19          0.369        1.111
  WS02006234           JUNCTION        0.90          0.358        0.882
  WS02006235           JUNCTION        1.14          0.462        0.828
  WS02006238           JUNCTION        1.16          0.479        0.951
  WS02006240           JUNCTION        1.11          0.434        0.956
  WS02006242           JUNCTION        1.14          0.496        0.324
  WS02006243           JUNCTION        1.09          0.423        0.347
  WS02006245           JUNCTION        1.07          0.407        0.443
  WS02006247           JUNCTION        1.09          0.424        0.336
  WS02006248           JUNCTION        0.98          0.363        0.017
  WS02006249           JUNCTION        1.00          0.390        0.000
  WS02006239           JUNCTION        1.12          0.441        0.849
  WS02006251           JUNCTION        0.45          0.329        0.851
  WS02006252           JUNCTION        1.11          0.497        0.603
  WS02006253           JUNCTION        0.46          0.369        2.111
  WS02006256           JUNCTION        6.20          2.050        0.000
  WS02006228           JUNCTION        1.14          0.207        1.993
  YS02001751           JUNCTION        2.75          0.187        1.013
  YS02001754           JUNCTION        4.29          0.408        0.742
  YS02001762           JUNCTION        5.04          0.666        0.484
  YS02001765           JUNCTION        4.86          0.616        0.484
  YS02001767           JUNCTION        4.77          0.577        0.453
  YS02001770           JUNCTION        4.65          0.541        0.379
  YS02001774           JUNCTION        4.96          0.644        0.406
  YS02001779           JUNCTION        4.21          0.380        0.300
  YS02001759           JUNCTION        5.15          0.702        0.508
  YS02001619           JUNCTION        2.08          0.142        0.468
  YS02001629           JUNCTION        2.09          0.141        0.329
  YS02001641           JUNCTION        4.92          0.631        0.469
  YS02001644           JUNCTION        4.93          0.636        0.284
  YS02001652           JUNCTION        4.38          0.441        0.689
  YS02001655           JUNCTION        3.14          0.218        0.982
  YS02001622           JUNCTION        2.43          0.167        0.453
  YS02001633           JUNCTION        4.81          0.596        0.464
  YS02001649           JUNCTION        5.07          0.677        0.373
  YS02001757           JUNCTION        5.36          0.805        0.405
  YS02001625           JUNCTION        4.45          0.466        0.314
  YS02163301           JUNCTION        4.70          0.553        0.477
  YS02163601           JUNCTION        5.06          0.671        0.409
  YS02164001           JUNCTION        4.85          0.611        0.489
  YS02001647           JUNCTION        4.42          0.457        0.443
  YS02001790           JUNCTION        0.16          0.193        0.964
  YS02001791           JUNCTION        0.22          0.350        1.570
  YS02001793           JUNCTION        0.30          0.778        1.822
  
  
  *********************
  Node Flooding Summary
  *********************
  
  Flooding refers to all water that overflows a node, whether it ponds or not.
  --------------------------------------------------------------------------
                                                             Total   Maximum
                                 Maximum   Time of Max       Flood    Ponded
                        Hours       Rate    Occurrence      Volume     Depth
  Node                 Flooded       LPS   days hr:min    10^6 ltr    Meters
  --------------------------------------------------------------------------
  WS02006249              0.42    111.30      0  05:00       0.097     0.000
  WS02006256              1.85    978.40      0  00:00       1.381     0.000
  JK-storage              0.03     29.11      0  03:26       0.002     0.000
  
  
  **********************
  Storage Volume Summary
  **********************
  
  --------------------------------------------------------------------------------------------------
                         Average     Avg  Evap Exfil       Maximum     Max    Time of Max    Maximum
                          Volume    Pcnt  Pcnt  Pcnt        Volume    Pcnt     Occurrence    Outflow
  Storage Unit           1000 m3    Full  Loss  Loss       1000 m3    Full    days hr:min        LPS
  --------------------------------------------------------------------------------------------------
  JK-storage               0.070      24     0     0         0.291     100       0  03:26     983.00
  CC-storage               1.922      12     0     0         2.948      19       0  04:50     400.00
  XR-storage               0.210      23     0     0         0.693      75       0  06:15     380.00
  
  
  ***********************
  Outfall Loading Summary
  ***********************
  
  ---------------------------------------------------------------------------------------------------------------------------------
                         Flow       Avg       Max       Total         Total         Total         Total         Total         Total
                         Freq      Flow      Flow      Volume           COD            SS            TN            TP         NH4-N
  Outfall Node           Pcnt       LPS       LPS    10^6 ltr            kg            kg            kg            kg            kg
  ---------------------------------------------------------------------------------------------------------------------------------
  WSC                   99.97    521.39    934.30      13.367      1845.503      2973.268       158.924        19.561        98.530
  ---------------------------------------------------------------------------------------------------------------------------------
  System                99.97    521.39    934.30      13.367      1845.503      2973.268       158.924        19.561        98.530
  
  
  ********************
  Link Flow Summary
  ********************
  
  -----------------------------------------------------------------------------
                                 Maximum  Time of Max   Maximum    Max/    Max/
                                  |Flow|   Occurrence   |Veloc|    Full    Full
  Link                 Type          LPS  days hr:min     m/sec    Flow   Depth
  -----------------------------------------------------------------------------
  WS02003066WSF200     CONDUIT    545.93     0  05:18      2.86    0.09    0.23
  WS02006287WS02006284 CONDUIT    185.84     0  02:14      1.56    0.09    0.21
  WS02006284WS02006280 CONDUIT    185.94     0  02:14      1.81    0.08    0.19
  WS02006280WS02006229 CONDUIT    185.94     0  02:14      2.90    0.04    0.14
  WS02006229WS02006228 CONDUIT    549.99     0  05:01      1.09    1.82    1.00
  WS02006256WS02006235 CONDUIT    288.60     0  00:00      4.23    3.05    1.00
  WS02006253WS02006251 CONDUIT     78.59     0  04:58      0.47    0.24    1.00
  WS02006252WS02006251 CONDUIT    404.96     0  05:00      3.22    1.49    1.00
  WS02006251WS02006249 CONDUIT    433.39     0  05:00      1.13    1.25    1.00
  WS02006249WS02006248 CONDUIT    414.83     0  05:40      1.08    2.27    1.00
  WS02006248WS02006247 CONDUIT    415.25     0  05:40      1.08    0.90    1.00
  WS02006247WS02006245 CONDUIT    415.62     0  05:40      1.08    3.30    1.00
  WS02006245WS02006243 CONDUIT    416.43     0  05:40      1.08    1.23    1.00
  WS02006243WS02006242 CONDUIT    416.87     0  05:40      1.08    0.89    1.00
  WS02006242WS02006240 CONDUIT    417.26     0  05:40      1.08    1.66    1.00
  WS02006240WS02006239 CONDUIT    418.27     0  05:40      1.09    1.32    1.00
  WS02006239WS02006238 CONDUIT    418.49     0  05:40      1.09    1.34    1.00
  WS02006238WS02006235 CONDUIT    418.74     0  05:40      1.46    0.93    1.00
  WS02006235WS02006234 CONDUIT    522.52     0  05:00      1.36    5.51    1.00
  WS02006234WS02006232 CONDUIT    521.68     0  05:00      1.39    1.06    1.00
  WS02006232WS02006231 CONDUIT    521.35     0  05:01      1.35    1.09    1.00
  WS02006231WS02006230 CONDUIT    521.44     0  05:01      1.35    7.91    1.00
  WS02006230WS02006229 CONDUIT    533.14     0  05:00      1.39   11.86    1.00
  WS02006228WS02006109 CONDUIT    549.80     0  05:01      1.09    2.40    1.00
  WS02006116WS02004401 CONDUIT    547.58     0  05:15      0.78    0.75    0.85
  WS02006115WS02006116 CONDUIT    548.37     0  05:15      0.89    0.70    0.77
  WS02006113WS02006111 CONDUIT    571.42     0  05:15      2.48    0.68    0.47
  WS02006112WS02006115 CONDUIT    551.26     0  05:30      0.77    0.33    0.87
  WS02006111WS02006112 CONDUIT    552.55     0  05:01      1.53    0.26    0.68
  WS02006110WS02006113 CONDUIT    551.24     0  05:01      1.30    0.50    0.79
  WS02006109WS02006110 CONDUIT    550.81     0  05:01      1.10    1.06    1.00
  WS02004411WS02004412 CONDUIT    546.05     0  05:17      0.93    0.78    0.70
  WS02004401WS02004402 CONDUIT    547.25     0  05:16      0.75    0.66    0.87
  WS02004413WS02003067 CONDUIT    545.95     0  05:18      1.12    0.23    0.60
  WS02004412WS02004413 CONDUIT    546.02     0  05:17      0.83    0.37    0.78
  WS02004410WS02004411 CONDUIT    546.12     0  05:17      0.94    0.75    0.69
  WS02004409WS02004410 CONDUIT    546.23     0  05:17      0.99    0.71    0.68
  WS02004407WS02004409 CONDUIT    546.41     0  05:16      1.51    0.19    0.49
  WS02004406WS02004407 CONDUIT    546.65     0  05:16      1.05    0.24    0.63
  WS02004405WS02004406 CONDUIT    547.06     0  05:16      0.71    1.08    0.96
  WS02004404WS02004405 CONDUIT    546.94     0  05:16      0.70    5.36    0.97
  WS02004403WS02004404 CONDUIT    546.85     0  05:16      0.72    0.40    0.93
  WS02004402WS02004403 CONDUIT    547.05     0  05:16      0.74    0.79    0.89
  WS02004139WS02001211 CONDUIT    381.40     0  03:10      0.90    0.48    0.59
  WS02004138WS02004139 CONDUIT    396.19     0  00:00      3.65    0.08    0.44
  WS02003067WS02003066 CONDUIT    545.94     0  05:18      1.22    0.17    0.42
  WS02001213WS02003059 CONDUIT    393.65     0  03:11      0.88    0.65    0.77
  WS02001212WS02001213 CONDUIT    391.36     0  03:12      1.32    0.60    0.47
  WS02001211WS02001212 CONDUIT    390.04     0  03:12      0.78    0.30    0.64
  WS02003072WS02003073 CONDUIT    932.65     0  05:13      1.72    2.01    0.48
  WS02003069WS02003072 CONDUIT    932.84     0  05:13      1.62    0.45    0.51
  WS02003060WS02003069 CONDUIT    932.88     0  05:12      1.86    0.37    0.46
  WS02003059WS02003060 CONDUIT    396.88     0  03:11      0.95    0.26    0.66
  HS02004901HS02004770 CONDUIT      9.10     0  02:10      0.04    0.03    0.31
  HS02004876HS02004881 CONDUIT     31.40     0  02:14      0.52    0.33    0.09
  HS02004870HS02004876 CONDUIT     24.92     0  02:14      0.37    0.02    0.10
  HS02004842HS02004848 CONDUIT      5.12     0  02:24      0.03    0.00    0.27
  HS02004837HS02004842 CONDUIT      5.30     0  02:25      0.42    0.00    0.29
  HS02004830HS02004837 CONDUIT     22.45     0  02:13      0.43    0.02    0.07
  HS02004824HS02004830 CONDUIT     22.60     0  02:14      0.47    0.03    0.07
  HS02004817HS02004824 CONDUIT     36.07     0  02:16      0.17    0.02    0.39
  HS02004770HS02004777 CONDUIT     46.75     0  02:10      0.21    0.09    0.32
  HS02004799HS02004480 CONDUIT    116.33     0  02:12      0.56    0.15    0.30
  HS02004792HS02004799 CONDUIT    106.27     0  02:12      0.65    0.07    0.24
  HS02004788HS02004792 CONDUIT     61.80     0  02:13      0.80    0.04    0.11
  HS02004785HS02004788 CONDUIT     46.30     0  02:13      0.48    0.35    0.14
  HS02004777HS02004785 CONDUIT     46.28     0  02:12      0.25    0.06    0.26
  HS02004480HS02004478 CONDUIT    137.44     0  02:13      0.92    0.58    0.21
  HS02004479HS02004480 CONDUIT     21.51     0  02:15      0.17    0.02    0.29
  HS02004862HS02004870 CONDUIT     18.22     0  02:15      0.45    0.02    0.06
  HS02004848HS02004852 CONDUIT      7.30     0  02:14      0.30    0.01    0.04
  HS02004856HS02004862 CONDUIT     12.25     0  02:15      0.33    0.01    0.05
  HS02004852HS02004856 CONDUIT      7.26     0  02:15      0.12    0.01    0.09
  HS02004802HS02004478 CONDUIT     49.46     0  02:17      0.29    0.04    0.24
  HS02004478WS02006287 CONDUIT    185.86     0  02:14      1.26    0.05    0.16
  HS02004817HS02004807 CONDUIT     37.06     0  02:18      0.11    0.02    0.50
  HS02004807HS02004802 CONDUIT     49.20     0  02:16      0.24    0.09    0.29
  YS02001759YS02001757 CONDUIT    198.43     0  02:56      0.25    0.14    1.00
  YS02001762YS02001759 CONDUIT    118.42     0  02:56      0.17    0.14    1.00
  YS02001765YS02001762 CONDUIT    119.78     0  02:56      0.24    0.11    1.00
  YS02001770YS02001767 CONDUIT    141.65     0  02:59      0.28    0.56    1.00
  YS02001774YS02001770 CONDUIT     67.90     0  02:58      0.13    0.04    1.00
  YS02001779YS02001774 CONDUIT     68.75     0  02:58      0.09    0.03    1.00
  YS02001649YS02001757 CONDUIT    308.07     0  02:59      0.39    0.19    1.00
  YS02001767YS02001765 CONDUIT    107.95     0  02:58      0.26    0.14    1.00
  YS02006561YS02001783 CONDUIT    290.36     0  02:46      1.75    0.15    0.44
  YS02001783YS02001784 CONDUIT    290.36     0  02:46      1.20    0.40    0.70
  YS02001784YS02001785 CONDUIT    291.41     0  02:47      1.28    0.68    0.76
  YS02001788YS02001790 CONDUIT    364.99     0  03:33      1.84    0.27    0.92
  YS02001790YS02001791 CONDUIT    412.18     0  03:33      2.13    0.45    1.00
  YS02001791YS02001793 CONDUIT    446.88     0  03:35      4.29    0.19    1.00
  YS02001910YS02001907 CONDUIT     89.74     0  02:57      0.49    0.05    0.72
  YS02001786YS02001788 CONDUIT    306.41     0  03:33      1.74    0.59    0.80
  YS02001915YS02001910 CONDUIT     89.48     0  02:57      0.45    0.04    0.51
  YS02001918YS02001915 CONDUIT     30.60     0  03:03      0.44    0.02    0.25
  YS02001923YS02001920 CONDUIT     27.75     0  03:01      0.43    0.01    0.14
  YS02001926YS02001923 CONDUIT     27.71     0  03:01      0.47    0.04    0.13
  YS02001929YS02001926 CONDUIT     27.70     0  03:01      0.50    0.01    0.12
  YS02001920YS02001918 CONDUIT     30.61     0  03:02      0.44    0.03    0.14
  YS02001629YS02163301 CONDUIT     82.62     0  03:04      0.11    0.10    1.00
  YS02001619YS02001622 CONDUIT     93.87     0  03:02      0.61    0.14    1.00
  YS02001622YS02001625 CONDUIT     89.57     0  03:04      0.23    0.05    1.00
  YS02001625YS02001629 CONDUIT    112.22     0  03:03      0.24    0.05    1.00
  YS02163301YS02001633 CONDUIT     67.78     0  03:09      0.09    0.06    1.00
  YS02163601YS02164001 CONDUIT    141.59     0  02:59      0.18    0.13    1.00
  YS02164001YS02001641 CONDUIT    137.12     0  02:58      0.17    0.19    1.00
  YS02001641YS02001644 CONDUIT    134.05     0  02:59      0.17    0.43    1.00
  YS02001647YS02001649 CONDUIT    240.64     0  03:00      0.32    0.13    1.00
  YS02006553YS02006556 CONDUIT    197.75     0  02:49      0.29    0.17    0.80
  YS02006556YS02006558 CONDUIT    197.79     0  02:49      0.28    0.16    0.83
  YSB6556YSB1171       CONDUIT     11.74     0  02:15      0.05    0.01    0.56
  YS02001907YS02006553 CONDUIT    197.67     0  02:49      0.24    0.23    0.91
  YS02006558YS02006561 CONDUIT    290.36     0  02:46      2.25    0.64    0.47
  YS02001633YS02163601 CONDUIT    143.78     0  03:00      0.18    0.15    1.00
  YS02001644YS02001647 CONDUIT    192.00     0  02:59      0.26    0.11    1.00
  YS02001745YS02001748 CONDUIT    131.87     0  03:59      1.38    0.05    0.73
  YS02001748YS02001751 CONDUIT    171.85     0  02:57      1.06    0.09    0.99
  YS02001751YS02001754 CONDUIT     83.96     0  02:59      0.89    0.04    1.00
  YS02001754YS02001757 CONDUIT    140.56     0  02:54      0.33    0.06    1.00
  YS02001882YS02001884 CONDUIT      3.21     0  02:05      0.07    0.00    0.44
  YS02001884YS02001887 CONDUIT      9.48     0  02:05      0.04    0.01    0.54
  YS02001890YS02001895 CONDUIT    110.03     0  02:38      0.28    0.05    0.51
  YS02001895YS02001898 CONDUIT    109.87     0  02:40      0.43    0.19    0.37
  YS02001898YS02001901 CONDUIT    109.71     0  02:41      0.32    0.07    0.45
  YS02001901YS02001904 CONDUIT    109.38     0  02:42      0.28    0.17    0.50
  YS02001904YS02001907 CONDUIT    109.40     0  02:42      0.20    0.04    0.66
  YS02001887YS02001890 CONDUIT    110.37     0  02:37      0.23    0.19    0.59
  YS02001652YS02001649 CONDUIT    153.63     0  02:55      0.34    0.08    1.00
  YS02001655YS02001652 CONDUIT     99.98     0  02:59      0.93    0.05    1.00
  YS02001658YS02001655 CONDUIT    163.09     0  02:54      1.22    0.07    0.96
  YS02001661YS02001658 CONDUIT    104.90     0  04:02      1.42    0.04    0.76
  YS02001664YS02001661 CONDUIT     78.56     0  02:37      1.07    0.02    0.40
  YSB1154YSB6556       CONDUIT     11.56     0  02:12      0.19    0.02    0.45
  YSB1174YSB1171       CONDUIT     10.27     0  02:09      0.05    0.02    0.57
  YSB1171HS02004479    CONDUIT     21.35     0  02:14      0.54    0.01    0.43
  HS02004881HS02006253 CONDUIT     35.08     0  02:14      1.60    0.01    0.50
  YS02001793JiankangQianchi CONDUIT    596.89     0  04:50     13.09    0.05    1.00
  YS02001757CaochengTiaoxuchi CONDUIT    459.90     0  02:56      0.91    0.20    1.00
  WSF200WS02003060     CONDUIT    545.35     0  05:18      2.09    0.12    0.34
  1                    CONDUIT    934.30     0  05:14      3.27    0.33    0.39
  CC-Pump-1            PUMP       200.00     0  04:50              1.00
  CC-Pump-2            PUMP       200.00     0  05:00              1.00
  JK-Pump-1            PUMP       300.00     0  00:00              1.00
  JK-Pump-2            PUMP       683.00     0  00:00              1.00
  XR-Pump-1            PUMP        95.00     0  00:00              1.00
  XR-Pump-2            PUMP        95.00     0  00:00              1.00
  XR-Pump-3            PUMP        95.00     0  00:00              1.00
  XR-Pump-4            PUMP        95.00     0  00:00              1.00
  
  
  ***************************
  Flow Classification Summary
  ***************************
  
  -------------------------------------------------------------------------------------
                      Adjusted    ---------- Fraction of Time in Flow Class ---------- 
                       /Actual         Up    Down  Sub   Sup   Up    Down  Norm  Inlet 
  Conduit               Length    Dry  Dry   Dry   Crit  Crit  Crit  Crit  Ltd   Ctrl  
  -------------------------------------------------------------------------------------
  WS02003066WSF200        1.00   0.02  0.12  0.00  0.00  0.86  0.00  0.00  0.64  0.00
  WS02006287WS02006284    1.00   0.05  0.03  0.00  0.72  0.20  0.00  0.00  0.78  0.00
  WS02006284WS02006280    1.00   0.06  0.00  0.00  0.00  0.00  0.00  0.94  0.00  0.00
  WS02006280WS02006229    1.00   0.06  0.00  0.00  0.00  0.00  0.00  0.94  0.00  0.00
  WS02006229WS02006228    1.00   0.00  0.00  0.00  0.99  0.00  0.00  0.01  0.00  0.00
  WS02006256WS02006235    1.00   0.00  0.00  0.00  1.00  0.00  0.00  0.00  0.00  0.00
  WS02006253WS02006251    1.00   0.02  0.03  0.00  0.93  0.00  0.01  0.00  0.00  0.00
  WS02006252WS02006251    1.00   0.41  0.00  0.00  0.05  0.00  0.54  0.00  0.00  0.00
  WS02006251WS02006249    1.00   0.00  0.00  0.00  1.00  0.00  0.00  0.00  0.74  0.00
  WS02006249WS02006248    1.00   0.00  0.01  0.00  0.61  0.00  0.38  0.00  0.00  0.00
  WS02006248WS02006247    1.00   0.01  0.00  0.00  0.96  0.00  0.00  0.03  0.48  0.00
  WS02006247WS02006245    1.00   0.01  0.00  0.00  0.92  0.00  0.00  0.07  0.00  0.00
  WS02006245WS02006243    1.00   0.01  0.00  0.00  0.82  0.00  0.00  0.18  0.03  0.00
  WS02006243WS02006242    1.00   0.00  0.00  0.00  0.99  0.00  0.00  0.00  0.47  0.00
  WS02006242WS02006240    1.00   0.00  0.00  0.00  1.00  0.00  0.00  0.00  0.00  0.00
  WS02006240WS02006239    1.00   0.00  0.00  0.00  0.85  0.00  0.00  0.14  0.03  0.00
  WS02006239WS02006238    1.00   0.00  0.00  0.00  1.00  0.00  0.00  0.00  0.23  0.00
  WS02006238WS02006235    1.00   0.00  0.00  0.00  1.00  0.00  0.00  0.00  0.00  0.00
  WS02006235WS02006234    1.00   0.00  0.00  0.00  0.88  0.00  0.12  0.00  0.00  0.00
  WS02006234WS02006232    1.00   0.00  0.00  0.00  1.00  0.00  0.00  0.00  0.17  0.00
  WS02006232WS02006231    1.00   0.00  0.00  0.00  1.00  0.00  0.00  0.00  0.00  0.00
  WS02006231WS02006230    1.00   0.00  0.00  0.00  0.42  0.00  0.58  0.00  0.00  0.00
  WS02006230WS02006229    1.00   0.00  0.00  0.00  0.99  0.00  0.00  0.01  0.01  0.00
  WS02006228WS02006109    1.00   0.00  0.00  0.00  1.00  0.00  0.00  0.00  0.01  0.00
  WS02006116WS02004401    1.00   0.02  0.00  0.00  0.98  0.00  0.00  0.00  0.01  0.00
  WS02006115WS02006116    1.00   0.02  0.00  0.00  0.95  0.00  0.00  0.03  0.01  0.00
  WS02006113WS02006111    1.00   0.01  0.00  0.00  0.00  0.99  0.00  0.00  0.25  0.00
  WS02006112WS02006115    1.00   0.01  0.01  0.00  0.98  0.00  0.00  0.00  0.00  0.00
  WS02006111WS02006112    1.00   0.01  0.00  0.00  0.99  0.00  0.00  0.00  0.98  0.00
  WS02006110WS02006113    1.00   0.01  0.00  0.00  0.99  0.00  0.00  0.00  0.00  0.00
  WS02006109WS02006110    1.00   0.00  0.01  0.00  0.99  0.00  0.00  0.00  0.00  0.00
  WS02004411WS02004412    1.00   0.10  0.00  0.00  0.90  0.00  0.00  0.00  0.00  0.00
  WS02004401WS02004402    1.00   0.02  0.00  0.00  0.98  0.00  0.00  0.00  0.01  0.00
  WS02004413WS02003067    1.00   0.10  0.03  0.00  0.00  0.00  0.87  0.00  0.00  0.00
  WS02004412WS02004413    1.00   0.10  0.00  0.00  0.90  0.00  0.00  0.00  0.01  0.00
  WS02004410WS02004411    1.00   0.09  0.00  0.00  0.91  0.00  0.00  0.00  0.00  0.00
  WS02004409WS02004410    1.00   0.09  0.00  0.00  0.91  0.00  0.00  0.00  0.00  0.00
  WS02004407WS02004409    1.00   0.09  0.00  0.00  0.90  0.01  0.00  0.00  0.78  0.00
  WS02004406WS02004407    1.00   0.00  0.09  0.00  0.91  0.00  0.00  0.00  0.00  0.00
  WS02004405WS02004406    1.00   0.00  0.00  0.00  1.00  0.00  0.00  0.00  0.02  0.00
  WS02004404WS02004405    1.00   0.00  0.00  0.00  1.00  0.00  0.00  0.00  0.00  0.00
  WS02004403WS02004404    1.00   0.00  0.02  0.00  0.98  0.00  0.00  0.00  0.02  0.00
  WS02004402WS02004403    1.00   0.02  0.00  0.00  0.98  0.00  0.00  0.00  0.00  0.00
  WS02004139WS02001211    1.00   0.00  0.00  0.00  1.00  0.00  0.00  0.00  0.00  0.00
  WS02004138WS02004139    1.00   0.00  0.00  0.00  0.99  0.00  0.00  0.00  1.00  0.00
  WS02003067WS02003066    1.00   0.13  0.01  0.00  0.86  0.00  0.00  0.00  0.00  0.00
  WS02001213WS02003059    1.00   0.00  0.00  0.00  1.00  0.00  0.00  0.00  0.00  0.00
  WS02001212WS02001213    1.00   0.00  0.00  0.00  0.83  0.00  0.16  0.00  0.00  0.00
  WS02001211WS02001212    1.00   0.00  0.00  0.00  1.00  0.00  0.00  0.00  0.00  0.00
  WS02003072WS02003073    1.00   0.00  0.00  0.00  0.00  0.00  0.00  1.00  0.00  0.00
  WS02003069WS02003072    1.00   0.00  0.00  0.00  1.00  0.00  0.00  0.00  0.19  0.00
  WS02003060WS02003069    1.00   0.00  0.00  0.00  0.99  0.01  0.00  0.00  0.12  0.00
  WS02003059WS02003060    1.00   0.00  0.00  0.00  1.00  0.00  0.00  0.00  0.00  0.00
  HS02004901HS02004770    1.00   0.06  0.00  0.00  0.94  0.00  0.00  0.00  0.01  0.00
  HS02004876HS02004881    1.00   0.01  0.00  0.00  0.99  0.00  0.00  0.00  0.00  0.00
  HS02004870HS02004876    1.00   0.00  0.00  0.00  0.99  0.00  0.00  0.00  0.95  0.00
  HS02004842HS02004848    1.00   0.00  0.06  0.00  0.94  0.00  0.00  0.00  0.67  0.00
  HS02004837HS02004842    1.00   0.00  0.00  0.00  1.00  0.00  0.00  0.00  0.11  0.00
  HS02004830HS02004837    1.00   0.00  0.00  0.00  1.00  0.00  0.00  0.00  0.99  0.00
  HS02004824HS02004830    1.00   0.00  0.00  0.00  1.00  0.00  0.00  0.00  0.00  0.00
  HS02004817HS02004824    1.00   0.00  0.00  0.00  1.00  0.00  0.00  0.00  1.00  0.00
  HS02004770HS02004777    1.00   0.00  0.06  0.00  0.94  0.00  0.00  0.00  0.06  0.00
  HS02004799HS02004480    1.00   0.00  0.02  0.00  0.91  0.00  0.07  0.00  0.00  0.00
  HS02004792HS02004799    1.00   0.00  0.00  0.00  0.99  0.01  0.00  0.00  0.98  0.00
  HS02004788HS02004792    1.00   0.00  0.00  0.00  0.99  0.01  0.00  0.00  0.98  0.00
  HS02004785HS02004788    1.00   0.00  0.00  0.00  1.00  0.00  0.00  0.00  0.00  0.00
  HS02004777HS02004785    1.00   0.00  0.00  0.00  1.00  0.00  0.00  0.00  0.18  0.00
  HS02004480HS02004478    1.00   0.07  0.00  0.00  0.73  0.00  0.00  0.20  0.00  0.00
  HS02004479HS02004480    1.00   0.02  0.00  0.00  0.98  0.00  0.00  0.00  0.15  0.00
  HS02004862HS02004870    1.00   0.00  0.00  0.00  1.00  0.00  0.00  0.00  0.06  0.00
  HS02004848HS02004852    1.00   0.06  0.00  0.00  0.94  0.00  0.00  0.00  0.71  0.00
  HS02004856HS02004862    1.00   0.00  0.10  0.00  0.90  0.00  0.00  0.00  0.77  0.00
  HS02004852HS02004856    1.00   0.06  0.01  0.00  0.93  0.00  0.00  0.00  0.83  0.00
  HS02004802HS02004478    1.00   0.06  0.01  0.00  0.93  0.00  0.00  0.00  0.01  0.00
  HS02004478WS02006287    1.00   0.08  0.00  0.00  0.87  0.05  0.00  0.00  0.80  0.00
  HS02004817HS02004807    1.00   0.00  0.06  0.00  0.94  0.00  0.00  0.00  0.00  0.00
  HS02004807HS02004802    1.00   0.06  0.00  0.00  0.93  0.00  0.00  0.01  0.01  0.00
  YS02001759YS02001757    1.00   0.00  0.00  0.00  1.00  0.00  0.00  0.00  0.18  0.00
  YS02001762YS02001759    1.00   0.00  0.00  0.00  1.00  0.00  0.00  0.00  0.04  0.00
  YS02001765YS02001762    1.00   0.00  0.00  0.00  1.00  0.00  0.00  0.00  0.20  0.00
  YS02001770YS02001767    1.00   0.00  0.00  0.00  1.00  0.00  0.00  0.00  0.00  0.00
  YS02001774YS02001770    1.00   0.00  0.07  0.00  0.93  0.00  0.00  0.00  0.06  0.00
  YS02001779YS02001774    1.00   0.00  0.00  0.00  1.00  0.00  0.00  0.00  0.25  0.00
  YS02001649YS02001757    1.00   0.00  0.00  0.00  1.00  0.00  0.00  0.00  0.18  0.00
  YS02001767YS02001765    1.00   0.00  0.00  0.00  1.00  0.00  0.00  0.00  0.01  0.00
  YS02006561YS02001783    1.00   0.11  0.00  0.00  0.02  0.87  0.00  0.00  0.75  0.00
  YS02001783YS02001784    1.00   0.00  0.11  0.00  0.89  0.00  0.00  0.00  0.01  0.00
  YS02001784YS02001785    1.00   0.00  0.00  0.00  1.00  0.00  0.00  0.00  0.24  0.00
  YS02001788YS02001790    1.00   0.00  0.00  0.00  0.14  0.86  0.00  0.00  0.79  0.00
  YS02001790YS02001791    1.00   0.00  0.00  0.00  0.04  0.96  0.00  0.00  0.50  0.00
  YS02001791YS02001793    1.00   0.00  0.00  0.00  0.08  0.92  0.00  0.00  0.05  0.00
  YS02001910YS02001907    1.00   0.00  0.00  0.00  0.98  0.00  0.00  0.01  0.13  0.00
  YS02001786YS02001788    1.00   0.00  0.00  0.00  0.14  0.86  0.00  0.00  0.00  0.00
  YS02001915YS02001910    1.00   0.00  0.00  0.00  0.99  0.01  0.00  0.00  0.22  0.00
  YS02001918YS02001915    1.00   0.00  0.00  0.00  0.99  0.01  0.00  0.00  0.83  0.00
  YS02001923YS02001920    1.00   0.00  0.00  0.00  1.00  0.00  0.00  0.00  1.00  0.00
  YS02001926YS02001923    1.00   0.00  0.03  0.00  0.00  0.00  0.97  0.00  0.00  0.00
  YS02001929YS02001926    1.00   0.00  0.06  0.00  0.94  0.00  0.00  0.00  0.87  0.00
  YS02001920YS02001918    1.00   0.00  0.00  0.00  1.00  0.00  0.00  0.00  0.00  0.00
  YS02001629YS02163301    1.00   0.09  0.01  0.00  0.90  0.00  0.00  0.00  0.00  0.00
  YS02001619YS02001622    1.00   0.06  0.00  0.00  0.94  0.00  0.00  0.00  0.00  0.00
  YS02001622YS02001625    1.00   0.06  0.00  0.00  0.94  0.00  0.00  0.00  0.11  0.00
  YS02001625YS02001629    1.00   0.06  0.05  0.00  0.85  0.00  0.03  0.00  0.00  0.00
  YS02163301YS02001633    1.00   0.00  0.09  0.00  0.91  0.00  0.00  0.00  0.00  0.00
  YS02163601YS02164001    1.00   0.00  0.04  0.00  0.96  0.00  0.00  0.00  0.00  0.00
  YS02164001YS02001641    1.00   0.01  0.03  0.00  0.96  0.00  0.00  0.00  0.07  0.00
  YS02001641YS02001644    1.00   0.00  0.00  0.00  1.00  0.00  0.00  0.00  0.00  0.00
  YS02001647YS02001649    1.00   0.00  0.11  0.00  0.89  0.00  0.00  0.00  0.01  0.00
  YS02006553YS02006556    1.00   0.01  0.00  0.00  0.99  0.00  0.00  0.00  0.03  0.00
  YS02006556YS02006558    1.00   0.00  0.00  0.00  1.00  0.00  0.00  0.00  0.00  0.00
  YSB6556YSB1171          1.00   0.02  0.04  0.00  0.94  0.00  0.00  0.00  0.00  0.00
  YS02001907YS02006553    1.00   0.00  0.01  0.00  0.99  0.00  0.00  0.00  0.00  0.00
  YS02006558YS02006561    1.00   0.11  0.00  0.00  0.00  0.89  0.00  0.00  0.74  0.00
  YS02001633YS02163601    1.00   0.00  0.01  0.00  0.99  0.00  0.00  0.00  0.19  0.00
  YS02001644YS02001647    1.00   0.00  0.11  0.00  0.89  0.00  0.00  0.00  0.00  0.00
  YS02001745YS02001748    1.00   0.00  0.00  0.00  0.80  0.02  0.00  0.18  0.12  0.00
  YS02001748YS02001751    1.00   0.00  0.00  0.00  0.94  0.06  0.00  0.00  0.22  0.00
  YS02001751YS02001754    1.00   0.00  0.00  0.00  0.87  0.00  0.00  0.12  0.02  0.00
  YS02001754YS02001757    1.00   0.00  0.00  0.00  1.00  0.00  0.00  0.00  0.25  0.00
  YS02001882YS02001884    1.00   0.08  0.01  0.00  0.91  0.00  0.00  0.00  0.00  0.00
  YS02001884YS02001887    1.00   0.03  0.02  0.00  0.95  0.00  0.00  0.00  0.00  0.00
  YS02001890YS02001895    1.00   0.00  0.09  0.00  0.91  0.00  0.00  0.00  0.00  0.00
  YS02001895YS02001898    1.00   0.09  0.00  0.00  0.88  0.00  0.02  0.00  0.00  0.00
  YS02001898YS02001901    1.00   0.09  0.01  0.00  0.90  0.00  0.00  0.00  0.02  0.00
  YS02001901YS02001904    1.00   0.09  0.00  0.00  0.91  0.00  0.00  0.00  0.00  0.00
  YS02001904YS02001907    1.00   0.00  0.09  0.00  0.91  0.00  0.00  0.00  0.00  0.00
  YS02001887YS02001890    1.00   0.00  0.00  0.00  0.98  0.00  0.01  0.00  0.00  0.00
  YS02001652YS02001649    1.00   0.00  0.00  0.00  1.00  0.00  0.00  0.00  0.23  0.00
  YS02001655YS02001652    1.00   0.00  0.00  0.00  0.88  0.00  0.00  0.12  0.02  0.00
  YS02001658YS02001655    1.00   0.00  0.08  0.00  0.86  0.06  0.00  0.00  0.12  0.00
  YS02001661YS02001658    1.00   0.08  0.00  0.00  0.80  0.12  0.00  0.00  0.18  0.00
  YS02001664YS02001661    1.00   0.06  0.00  0.00  0.81  0.13  0.00  0.00  0.72  0.00
  YSB1154YSB6556          1.00   0.06  0.00  0.00  0.94  0.00  0.00  0.00  0.02  0.00
  YSB1174YSB1171          1.00   0.02  0.02  0.00  0.96  0.00  0.00  0.00  0.00  0.00
  YSB1171HS02004479       1.00   0.02  0.00  0.00  0.97  0.00  0.00  0.01  0.13  0.00
  HS02004881HS02006253    1.00   0.03  0.00  0.00  0.41  0.00  0.00  0.57  0.20  0.00
  YS02001793JiankangQianchi    1.00   0.00  0.00  0.00  0.65  0.35  0.00  0.00  0.60  0.00
  YS02001757CaochengTiaoxuchi    1.00   0.00  0.14  0.00  0.86  0.00  0.00  0.00  0.00  0.00
  WSF200WS02003060        1.00   0.00  0.02  0.00  0.74  0.24  0.00  0.00  0.63  0.00
  1                       1.00   0.00  0.00  0.00  0.00  1.00  0.00  0.00  0.55  0.00
  
  
  *************************
  Conduit Surcharge Summary
  *************************
  
  ----------------------------------------------------------------------------
                                                           Hours        Hours 
                         --------- Hours Full --------   Above Full   Capacity
  Conduit                Both Ends  Upstream  Dnstream   Normal Flow   Limited
  ----------------------------------------------------------------------------
  WS02006229WS02006228        1.14      1.18      1.14      1.85         1.14
  WS02006256WS02006235        4.09      4.09      6.20      3.26         0.01
  WS02006253WS02006251        0.97      0.97      0.99      0.01         0.01
  WS02006252WS02006251        0.86      0.86      1.11      1.04         0.01
  WS02006251WS02006249        0.98      0.98      1.00      0.78         0.76
  WS02006249WS02006248        0.98      0.98      1.00      1.44         0.01
  WS02006248WS02006247        0.99      0.99      1.09      0.01         0.01
  WS02006247WS02006245        1.07      1.10      1.07      1.55         1.07
  WS02006245WS02006243        1.09      1.09      1.09      0.45         0.45
  WS02006243WS02006242        1.10      1.10      1.14      0.01         0.01
  WS02006242WS02006240        1.11      1.11      1.17      1.09         0.01
  WS02006240WS02006239        1.11      1.12      1.12      0.88         0.82
  WS02006239WS02006238        1.15      1.15      1.16      0.91         0.86
  WS02006238WS02006235        1.15      1.15      1.18      0.01         0.01
  WS02006235WS02006234        0.90      0.90      1.14      4.06         0.01
  WS02006234WS02006232        1.11      1.11      1.19      0.49         0.49
  WS02006232WS02006231        0.58      0.58      1.19      0.54         0.01
  WS02006231WS02006230        0.42      0.42      0.60      4.21         0.01
  WS02006230WS02006229        1.71      1.78      1.71      4.70         1.71
  WS02006228WS02006109        1.15      1.50      1.15      2.73         1.15
  WS02006112WS02006115        0.01      0.01      0.57      0.01         0.01
  WS02006111WS02006112        0.01      0.01      2.02      0.01         0.01
  WS02006110WS02006113        0.01      0.01      1.36      0.01         0.01
  WS02006109WS02006110        0.47      0.47      1.50      0.48         0.01
  WS02004405WS02004406        0.01      0.01      0.01      0.50         0.01
  WS02004404WS02004405        0.01      0.01      0.01      4.65         0.01
  WS02003072WS02003073        0.01      0.01      0.01      4.75         0.01
  YS02001759YS02001757        5.15      5.15      5.36      0.01         0.01
  YS02001762YS02001759        5.04      5.04      5.15      0.01         0.01
  YS02001765YS02001762        4.86      4.86      5.04      0.01         0.01
  YS02001770YS02001767        4.74      4.74      4.77      0.01         0.19
  YS02001774YS02001770        4.65      4.65      4.96      0.01         0.01
  YS02001779YS02001774        4.21      4.21      4.96      0.01         0.01
  YS02001649YS02001757        5.07      5.07      5.36      0.01         0.01
  YS02001767YS02001765        4.77      4.77      4.86      0.01         0.01
  YS02001788YS02001790        0.01      0.01      0.16      0.01         0.01
  YS02001790YS02001791        0.16      0.16      0.22      0.01         0.01
  YS02001791YS02001793        0.22      0.22      0.33      0.01         0.01
  YS02001629YS02163301        4.60      4.60      4.70      0.01         0.01
  YS02001619YS02001622        2.08      2.08      2.43      0.01         0.01
  YS02001622YS02001625        2.43      2.43      4.45      0.01         0.01
  YS02001625YS02001629        2.09      2.09      4.45      0.01         0.01
  YS02163301YS02001633        4.70      4.70      4.88      0.01         0.01
  YS02163601YS02164001        4.85      4.85      5.06      0.01         0.01
  YS02164001YS02001641        4.85      4.85      4.92      0.01         0.01
  YS02001641YS02001644        4.91      4.92      4.93      0.01         0.25
  YS02001647YS02001649        4.42      4.42      5.07      0.01         0.01
  YS02001633YS02163601        4.81      4.81      5.06      0.01         0.01
  YS02001644YS02001647        4.42      4.42      4.93      0.01         0.01
  YS02001748YS02001751        0.01      0.01      2.75      0.01         0.01
  YS02001751YS02001754        2.75      2.75      4.29      0.01         0.01
  YS02001754YS02001757        4.43      4.43      5.36      0.01         0.01
  YS02001652YS02001649        4.45      4.45      5.07      0.01         0.01
  YS02001655YS02001652        3.14      3.14      4.39      0.01         0.01
  YS02001658YS02001655        0.01      0.01      3.14      0.01         0.01
  HS02004881HS02006253        0.01      0.01      0.46      0.01         0.01
  YS02001793JiankangQianchi        0.30      0.30      2.90      0.01         0.01
  YS02001757CaochengTiaoxuchi        0.61      0.61      5.36      0.01         0.01
  
  
  ***************
  Pumping Summary
  ***************
  
  ---------------------------------------------------------------------------------------------------------
                                                  Min       Avg       Max     Total     Power    % Time Off
                        Percent   Number of      Flow      Flow      Flow    Volume     Usage    Pump Curve
  Pump                 Utilized   Start-Ups       LPS       LPS       LPS  10^6 ltr     Kw-hr    Low   High
  ---------------------------------------------------------------------------------------------------------
  CC-Pump-1               23.39           2      0.00    173.19    200.00     1.140      2.48    0.0    0.0
  CC-Pump-2               17.02           1      0.00    119.31    200.00     0.720      1.78    0.0    0.0
  JK-Pump-1               48.91           5      0.00    164.14    300.00     2.057     34.74    0.0    0.0
  JK-Pump-2               38.29           5      0.00    168.98    683.00     1.745     34.25    0.0   95.7
  XR-Pump-1               93.62           2      0.00     86.20     95.00     2.337     47.60    0.0    0.0
  XR-Pump-2               91.49           2      0.00     85.58     95.00     2.166     44.46    0.0    0.0
  XR-Pump-3               76.59           7      0.00     78.18     95.00     1.653     33.45    0.0    0.0
  XR-Pump-4               76.59           7      0.00     78.18     95.00     1.653     33.45    0.0    0.0
  
  
  ***************************
  Link Pollutant Load Summary
  ***************************
  
  ------------------------------------------------------------------------------------------
                                 COD            SS            TN            TP         NH4-N
  Link                            kg            kg            kg            kg            kg
  ------------------------------------------------------------------------------------------
  WS02003066WSF200           288.548       479.648        11.991         1.247         6.856
  WS02006287WS02006284       102.949       174.310         6.192         0.719         3.718
  WS02006284WS02006280       103.371       174.990         6.232         0.724         3.743
  WS02006280WS02006229       103.353       174.959         6.231         0.724         3.742
  WS02006229WS02006228       284.517       472.725        11.629         1.201         6.630
  WS02006256WS02006235        77.143       126.262         2.649         0.254         1.470
  WS02006253WS02006251        13.741        24.297         0.422         0.038         0.226
  WS02006252WS02006251       106.458       173.429         2.799         0.226         1.440
  WS02006251WS02006249       117.131       192.764         3.138         0.257         1.623
  WS02006249WS02006248       110.861       182.520         2.971         0.244         1.537
  WS02006248WS02006247       110.787       182.419         2.970         0.244         1.536
  WS02006247WS02006245       110.609       182.130         2.966         0.243         1.535
  WS02006245WS02006243       110.503       181.997         2.959         0.243         1.530
  WS02006243WS02006242       111.496       183.660         2.992         0.246         1.549
  WS02006242WS02006240       113.152       186.387         3.048         0.251         1.580
  WS02006240WS02006239       115.603       190.434         3.128         0.259         1.624
  WS02006239WS02006238       118.939       195.791         3.257         0.272         1.697
  WS02006238WS02006235       121.008       199.039         3.337         0.280         1.743
  WS02006235WS02006234       184.129       302.570         5.494         0.486         2.940
  WS02006234WS02006232       183.854       302.111         5.495         0.487         2.941
  WS02006232WS02006231       183.229       301.107         5.475         0.485         2.931
  WS02006231WS02006230       182.521       300.001         5.452         0.483         2.918
  WS02006230WS02006229       181.949       299.036         5.436         0.482         2.910
  WS02006228WS02006109       283.845       471.661        11.602         1.199         6.615
  WS02006116WS02004401       290.345       482.462        12.171         1.270         6.969
  WS02006115WS02006116       290.684       482.988        12.203         1.274         6.989
  WS02006113WS02006111       290.071       481.634        12.283         1.285         7.044
  WS02006112WS02006115       291.454       484.234        12.260         1.281         7.024
  WS02006111WS02006112       289.762       481.144        12.264         1.283         7.033
  WS02006110WS02006113       290.605       482.498        12.317         1.289         7.065
  WS02006109WS02006110       291.736       484.316        12.389         1.297         7.108
  WS02004411WS02004412       289.621       481.393        12.087         1.259         6.916
  WS02004401WS02004402       289.792       481.569        12.125         1.264         6.940
  WS02004413WS02003067       288.620       479.741        11.998         1.248         6.861
  WS02004412WS02004413       289.344       480.952        12.062         1.256         6.900
  WS02004410WS02004411       289.739       481.573        12.100         1.261         6.924
  WS02004409WS02004410       289.920       481.862        12.117         1.263         6.934
  WS02004407WS02004409       289.845       481.719        12.116         1.263         6.934
  WS02004406WS02004407       289.570       481.244        12.101         1.261         6.925
  WS02004405WS02004406       290.373       482.544        12.174         1.270         6.970
  WS02004404WS02004405       290.030       481.951        12.152         1.268         6.957
  WS02004403WS02004404       289.125       480.504        12.064         1.257         6.902
  WS02004402WS02004403       289.539       481.175        12.099         1.261         6.924
  WS02004139WS02001211      1387.781      2222.879       130.682        16.282        81.516
  WS02004138WS02004139      1384.784      2218.082       130.395        16.246        81.337
  WS02003067WS02003066       288.580       479.699        11.995         1.248         6.858
  WS02001213WS02003059      1436.742      2301.214       135.384        16.870        84.456
  WS02001212WS02001213      1436.874      2301.425       135.398        16.871        84.464
  WS02001211WS02001212      1438.161      2303.486       135.519        16.887        84.540
  WS02003072WS02003073      1835.753      2957.599       157.988        19.444        97.945
  WS02003069WS02003072      1839.492      2963.603       158.342        19.488        98.166
  WS02003060WS02003069      1839.356      2963.384       158.328        19.486        98.157
  WS02003059WS02003060      1437.481      2302.397       135.453        16.878        84.498
  HS02004901HS02004770         2.300         4.097         0.045         0.003         0.021
  HS02004876HS02004881         9.383        16.856         0.292         0.026         0.156
  HS02004870HS02004876         7.307        13.049         0.259         0.024         0.142
  HS02004842HS02004848         1.308         2.261         0.030         0.002         0.013
  HS02004837HS02004842         5.945         9.655         0.496         0.061         0.306
  HS02004830HS02004837        48.155        78.142         4.225         0.522         2.625
  HS02004824HS02004830        48.906        79.344         4.297         0.531         2.670
  HS02004817HS02004824        53.986        88.429         4.431         0.541         2.739
  HS02004770HS02004777         8.984        16.146         0.199         0.013         0.090
  HS02004799HS02004480        40.746        69.818         1.916         0.209         1.107
  HS02004792HS02004799        38.228        64.970         1.917         0.213         1.117
  HS02004788HS02004792        25.577        43.314         1.524         0.175         0.907
  HS02004785HS02004788        10.481        18.552         0.351         0.032         0.186
  HS02004777HS02004785         9.957        17.707         0.303         0.026         0.156
  HS02004480HS02004478        48.075        83.383         1.996         0.212         1.137
  HS02004479HS02004480        11.648        20.451         0.491         0.054         0.286
  HS02004862HS02004870         5.518         9.641         0.223         0.022         0.125
  HS02004848HS02004852         1.456         2.538         0.033         0.002         0.015
  HS02004856HS02004862         2.888         5.243         0.061         0.004         0.028
  HS02004852HS02004856         1.453         2.532         0.033         0.002         0.015
  HS02004802HS02004478        55.185        91.433         4.224         0.511         2.599
  HS02004478WS02006287       103.131       174.607         6.208         0.721         3.728
  HS02004817HS02004807        52.610        86.230         4.300         0.525         2.658
  HS02004807HS02004802        55.836        92.470         4.287         0.519         2.638
  YS02001759YS02001757        86.104       141.298         2.084         0.154         1.057
  YS02001762YS02001759        46.184        76.453         1.274         0.101         0.666
  YS02001765YS02001762        45.824        75.778         1.292         0.103         0.678
  YS02001770YS02001767        43.560        72.063         1.004         0.065         0.494
  YS02001774YS02001770         4.822         8.062         0.120         0.009         0.061
  YS02001779YS02001774         3.720         6.153         0.156         0.016         0.089
  YS02001649YS02001757       127.382       202.473         2.997         0.226         1.468
  YS02001767YS02001765        45.984        75.987         1.312         0.105         0.690
  YS02006561YS02001783       189.325       308.933         5.816         0.525         3.151
  YS02001783YS02001784       189.259       308.837         5.813         0.525         3.149
  YS02001784YS02001785       196.633       320.653         6.526         0.614         3.594
  YS02001788YS02001790       197.327       321.786         6.599         0.623         3.641
  YS02001790YS02001791       198.368       323.469         6.699         0.636         3.703
  YS02001791YS02001793       198.318       323.395         6.694         0.635         3.700
  YS02001910YS02001907        69.445       111.846         3.128         0.319         1.799
  YS02001786YS02001788       196.880       321.059         6.554         0.618         3.612
  YS02001915YS02001910        69.339       111.624         3.086         0.313         1.772
  YS02001918YS02001915        39.102        61.302         2.382         0.275         1.435
  YS02001923YS02001920        19.069        29.242         0.444         0.033         0.223
  YS02001926YS02001923        18.694        28.637         0.406         0.028         0.199
  YS02001929YS02001926        18.404        28.163         0.374         0.024         0.179
  YS02001920YS02001918        39.014        61.161         2.363         0.272         1.422
  YS02001629YS02163301        21.069        33.667         0.488         0.030         0.225
  YS02001619YS02001622        24.111        38.284         0.560         0.034         0.257
  YS02001622YS02001625        23.222        36.977         0.537         0.033         0.247
  YS02001625YS02001629        22.224        35.511         0.513         0.031         0.236
  YS02163301YS02001633        20.866        33.358         0.483         0.030         0.223
  YS02163601YS02164001        60.322        95.549         1.402         0.102         0.686
  YS02164001YS02001641        59.884        94.860         1.380         0.100         0.673
  YS02001641YS02001644        60.231        95.425         1.378         0.100         0.671
  YS02001647YS02001649        96.266       152.038         2.086         0.148         1.005
  YS02006553YS02006556       138.802       225.878         4.593         0.434         2.537
  YS02006556YS02006558       138.761       225.790         4.563         0.430         2.517
  YSB6556YSB1171               5.800        10.300         0.184         0.019         0.103
  YS02001907YS02006553       138.727       225.769         4.586         0.433         2.532
  YS02006558YS02006561       189.330       308.931         5.816         0.525         3.150
  YS02001633YS02163601        60.895        96.373         1.385         0.099         0.672
  YS02001644YS02001647        97.036       153.158         2.103         0.150         1.014
  YS02001745YS02001748        37.723        61.264         1.139         0.092         0.602
  YS02001748YS02001751        41.293        67.066         1.538         0.143         0.855
  YS02001751YS02001754        40.128        65.160         1.594         0.153         0.897
  YS02001754YS02001757        41.267        67.021         1.756         0.175         1.001
  YS02001882YS02001884         0.442         0.685         0.014         0.001         0.008
  YS02001884YS02001887         1.715         2.750         0.049         0.005         0.026
  YS02001890YS02001895        70.398       115.526         1.493         0.117         0.752
  YS02001895YS02001898        70.272       115.347         1.487         0.117         0.748
  YS02001898YS02001901        70.166       115.198         1.484         0.116         0.747
  YS02001901YS02001904        70.216       115.312         1.502         0.119         0.759
  YS02001904YS02001907        70.948       116.528         1.591         0.130         0.815
  YS02001887YS02001890        71.228       116.808         1.556         0.125         0.791
  YS02001652YS02001649        32.988        53.293         0.943         0.079         0.475
  YS02001655YS02001652        33.801        54.535         0.968         0.081         0.487
  YS02001658YS02001655        32.632        52.586         0.771         0.055         0.359
  YS02001661YS02001658        32.694        52.559         0.731         0.049         0.331
  YS02001664YS02001661        32.723        52.521         0.734         0.049         0.332
  YSB1154YSB6556               5.314         9.527         0.124         0.011         0.065
  YSB1174YSB1171               3.979         7.164         0.124         0.012         0.069
  YSB1171HS02004479           11.553        20.310         0.481         0.053         0.280
  HS02004881HS02006253        10.512        18.977         0.310         0.027         0.164
  YS02001793JiankangQianchi       199.592       325.445         6.753         0.642         3.734
  YS02001757CaochengTiaoxuchi       248.432       401.376         6.485         0.516         3.319
  WSF200WS02003060           288.579       479.712        11.993         1.247         6.857
  1                         1845.503      2973.268       158.924        19.561        98.530
  CC-Pump-1                   64.784       105.487         1.689         0.136         0.866
  CC-Pump-2                   41.320        67.380         1.078         0.087         0.553
  JK-Pump-1                   86.493       141.544         2.965         0.284         1.645
  JK-Pump-2                   56.142        92.618         1.658         0.148         0.893
  XR-Pump-1                  424.603       680.066        40.029         4.988        24.972
  XR-Pump-2                  386.354       618.836        36.391         4.534        22.700
  XR-Pump-3                  286.716       459.273        26.969         3.360        16.821
  XR-Pump-4                  286.716       459.273        26.969         3.360        16.821
  

  Analysis begun on:  Sun Jul 11 16:07:18 2021
  Analysis ended on:  Sun Jul 11 16:07:19 2021
  Total elapsed time: 00:00:01