
  EPA STORM WATER MANAGEMENT MODEL - VERSION 5.1 (Build 5.3.0.dev0)
  --------------------------------------------------------------

  WARNING 04: minimum elevation drop used for Conduit WS02004404WS02004405
  WARNING 03: negative offset ignored for Link YS02001904YS02001907
  
  *********************************************************
  NOTE: The summary statistics displayed in this report are
  based on results found at every computational time step,  
  not just on results from each reporting time step.
  *********************************************************
  
  ****************
  Analysis Options
  ****************
  Flow Units ............... LPS
  Process Models:
    Rainfall/Runoff ........ YES
    RDII ................... NO
    Snowmelt ............... NO
    Groundwater ............ NO
    Flow Routing ........... YES
    Ponding Allowed ........ NO
    Water Quality .......... YES
  Infiltration Method ...... HORTON
  Flow Routing Method ...... DYNWAVE
  Surcharge Method ......... EXTRAN
  Starting Date ............ 08/28/2015 08:00:00
  Ending Date .............. 08/28/2015 15:50:00
  Antecedent Dry Days ...... 8.0
  Report Time Step ......... 00:01:00
  Wet Time Step ............ 00:01:00
  Dry Time Step ............ 00:01:00
  Routing Time Step ........ 5.00 sec
  Variable Time Step ....... YES
  Maximum Trials ........... 8
  Number of Threads ........ 4
  Head Tolerance ........... 0.001500 m
  
  
  **************************        Volume         Depth
  Runoff Quantity Continuity     hectare-m            mm
  **************************     ---------       -------
  Total Precipitation ......         2.730         5.977
  Evaporation Loss .........         0.000         0.000
  Infiltration Loss ........         0.582         1.274
  Surface Runoff ...........         1.597         3.496
  Final Storage ............         0.552         1.208
  Continuity Error (%) .....        -0.022
  
  
  **************************           COD            SS            TN            TP         NH4-N
  Runoff Quality Continuity             kg            kg            kg            kg            kg
  **************************    ----------    ----------    ----------    ----------    ----------
  Initial Buildup ..........     41378.656     70582.865      1804.177       168.684      1032.807
  Surface Buildup ..........        15.053        20.057         2.937         0.271         1.736
  Wet Deposition ...........         0.000         0.000         0.000         0.000         0.000
  Sweeping Removal .........         0.000         0.000         0.000         0.000         0.000
  Infiltration Loss ........        29.483        52.100         0.580         0.039         0.273
  BMP Removal ..............         0.000         0.000         0.000         0.000         0.000
  Surface Runoff ...........       975.666      1672.310        19.687         1.280         9.283
  Remaining Buildup ........     40388.244     68877.975      1786.839       167.635      1024.985
  Continuity Error (%) .....         0.001         0.001         0.000         0.000         0.000
  
  
  **************************        Volume        Volume
  Flow Routing Continuity        hectare-m      10^6 ltr
  **************************     ---------     ---------
  Dry Weather Inflow .......         0.616         6.165
  Wet Weather Inflow .......         1.596        15.961
  Groundwater Inflow .......         0.000         0.000
  RDII Inflow ..............         0.000         0.000
  External Inflow ..........         0.102         1.024
  External Outflow .........         1.662        16.624
  Flooding Loss ............         0.329         3.293
  Evaporation Loss .........         0.000         0.000
  Exfiltration Loss ........         0.000         0.000
  Initial Stored Volume ....         0.076         0.761
  Final Stored Volume ......         0.499         4.987
  Continuity Error (%) .....        -4.154
  
  
  **************************           COD            SS            TN            TP         NH4-N
  Quality Routing Continuity            kg            kg            kg            kg            kg
  **************************    ----------    ----------    ----------    ----------    ----------
  Dry Weather Inflow .......      1541.201      2465.922       147.955        18.494        92.472
  Wet Weather Inflow .......       975.336      1671.789        19.680         1.280         9.279
  Groundwater Inflow .......         0.000         0.000         0.000         0.000         0.000
  RDII Inflow ..............         0.000         0.000         0.000         0.000         0.000
  External Inflow ..........       183.418       293.469        17.608         2.201        11.005
  External Outflow .........      2055.106      3362.409       160.928        19.544        99.072
  Flooding Loss ............       190.331       324.860         4.765         0.392         2.469
  Exfiltration Loss ........         0.000         0.000         0.000         0.000         0.000
  Mass Reacted .............         0.000         0.000         0.000         0.000         0.000
  Initial Stored Mass ......         0.000         0.000         0.000         0.000         0.000
  Final Stored Mass ........       342.339       559.680        15.258         1.610         8.800
  Continuity Error (%) .....         4.155         4.158         2.317         1.954         2.142
  
  
  *************************
  Highest Continuity Errors
  *************************
  Node YS02001774 (36.37%)
  Node HS02004842 (24.15%)
  Node JK-storage (-20.34%)
  Node YS02001884 (18.83%)
  Node YSB1171 (5.49%)
  
  
  ***************************
  Time-Step Critical Elements
  ***************************
  Link WS02006252WS02006251 (74.96%)
  Link WS02006280WS02006229 (9.71%)
  Link WS02006238WS02006235 (4.82%)
  Link YS02001793JiankangQianchi (2.45%)
  Link WS02004404WS02004405 (1.87%)
  
  
  ********************************
  Highest Flow Instability Indexes
  ********************************
  Link WS02006113WS02006111 (45)
  Link YS02001779YS02001774 (32)
  Link YS02001774YS02001770 (30)
  Link WS02006111WS02006112 (27)
  Link YS02001619YS02001622 (26)
  
  
  *************************
  Routing Time Step Summary
  *************************
  Minimum Time Step           :     0.50 sec
  Average Time Step           :     1.12 sec
  Maximum Time Step           :     5.00 sec
  Percent in Steady State     :    -0.00
  Average Iterations per Step :     4.09
  Percent Not Converging      :    17.99
  
  
  ***************************
  Subcatchment Runoff Summary
  ***************************
  
  ------------------------------------------------------------------------------------------------------------------------------
                            Total      Total      Total      Total     Imperv       Perv      Total       Total     Peak  Runoff
                           Precip      Runon       Evap      Infil     Runoff     Runoff     Runoff      Runoff   Runoff   Coeff
  Subcatchment                 mm         mm         mm         mm         mm         mm         mm    10^6 ltr      LPS
  ------------------------------------------------------------------------------------------------------------------------------
  sub0                       5.98       0.00       0.00       0.41       5.51       0.00       5.52        0.00     1.74   0.923
  sub1                       5.98       0.00       0.00       0.66       5.23       0.00       5.23        0.03    10.13   0.876
  sub2                       5.98       0.00       0.00       2.21       3.69       0.00       3.69        0.03     9.10   0.617
  sub3                       5.98       0.00       0.00       2.21       3.65       0.00       3.65        0.08    19.00   0.611
  sub4                       5.98       0.00       0.00       0.66       5.09       0.00       5.09        0.11    21.50   0.852
  sub5                       5.98       0.00       0.00       0.42       5.47       0.00       5.47        0.06    18.02   0.915
  sub7                       5.98       0.00       0.00       0.54       5.38       0.00       5.38        0.02     6.11   0.900
  sub8                       5.98       0.00       0.00       0.54       5.37       0.00       5.37        0.03    10.97   0.899
  sub9                       5.98       0.00       0.00       0.54       5.37       0.00       5.37        0.03     8.15   0.898
  sub10                      5.98       0.00       0.00       0.48       5.41       0.00       5.42        0.06    17.88   0.906
  sub11                      5.98       0.00       0.00       0.48       5.43       0.00       5.43        0.06    20.54   0.909
  sub12                      5.98       0.00       0.00       0.77       5.15       0.00       5.16        0.05    16.60   0.863
  sub14                      5.98       0.00       0.00       0.54       5.37       0.00       5.37        0.05    15.98   0.898
  sub15                      5.98       0.00       0.00       1.79       4.12       0.00       4.13        0.07    21.79   0.690
  sub16                      5.98       0.00       0.00       1.97       3.97       0.00       3.97        0.04    14.80   0.664
  sub17                      5.98       0.00       0.00       1.91       4.02       0.00       4.03        0.03    12.06   0.673
  sub22                      5.98       0.00       0.00       2.57       3.37       0.00       3.37        0.21    70.04   0.564
  sub23                      5.98       0.00       0.00       2.21       3.72       0.00       3.72        0.18    59.34   0.623
  sub60                      5.98       0.00       0.00       0.72       3.84       0.00       3.84        1.16   110.29   0.643
  sub61                      5.98       0.00       0.00       1.02       4.04       0.00       4.04        1.25   138.51   0.676
  sub62                      5.98       0.00       0.00       0.48       4.35       0.00       4.35        1.34   141.52   0.729
  sub63                      5.98       0.00       0.00       1.73       3.58       0.00       3.58        1.08   129.31   0.599
  sub64                      5.98       0.00       0.00       0.90       3.68       0.00       3.68        1.12   104.76   0.615
  sub65                      5.98       0.00       0.00       0.78       3.73       0.00       3.73        1.15   106.30   0.624
  sub66                      5.98       0.00       0.00       1.73       3.19       0.00       3.19        0.98    96.04   0.534
  sub67                      5.98       0.00       0.00       0.48       4.72       0.00       4.72        1.46   181.77   0.790
  sub68                      5.98       0.00       0.00       0.84       4.28       0.00       4.28        1.32   153.17   0.717
  sub69                      5.98       0.00       0.00       0.90       4.56       0.00       4.56        1.07   152.07   0.763
  sub70                      5.98       4.65       0.00       3.60       5.78       0.01       5.79        1.32   126.54   0.544
  sub71                      5.98       0.00       0.00       0.48       4.19       0.00       4.19        0.99    98.74   0.701
  sub72                      5.98       0.00       0.00       0.42       3.07       0.00       3.07        0.63    47.74   0.513
  1                          5.98       5.63       0.00       1.32       6.03       1.02       7.05        1.66   122.81   0.607
  2                          5.98       0.00       0.00       2.91       1.37       0.35       1.72        0.69    93.61   0.288
  
  
  ****************************
  Subcatchment Washoff Summary
  ****************************
  
  ------------------------------------------------------------------------------------------
                                 COD            SS            TN            TP         NH4-N
  Subcatchment                    kg            kg            kg            kg            kg
  ------------------------------------------------------------------------------------------
  sub0                         0.924         1.733         0.015         0.001         0.007
  sub1                         3.734         7.083         0.070         0.005         0.033
  sub2                         2.130         3.885         0.047         0.003         0.021
  sub3                         5.145         9.252         0.112         0.007         0.051
  sub4                         8.160        15.348         0.167         0.010         0.080
  sub5                         8.613        16.137         0.151         0.011         0.073
  sub7                         1.983         3.843         0.037         0.002         0.018
  sub8                         2.984         5.893         0.060         0.003         0.029
  sub9                         2.530         4.927         0.049         0.003         0.024
  sub10                        7.149        13.578         0.130         0.009         0.063
  sub11                        7.107        13.698         0.132         0.009         0.064
  sub12                        5.957        11.301         0.106         0.008         0.051
  sub14                        5.370        10.362         0.102         0.007         0.049
  sub15                        6.287        11.552         0.123         0.009         0.057
  sub16                        4.006         7.374         0.077         0.006         0.036
  sub17                        3.670         6.692         0.068         0.005         0.032
  sub22                       18.528        33.320         0.359         0.027         0.166
  sub23                       11.384        21.254         0.252         0.016         0.114
  sub60                       62.760       106.747         1.330         0.077         0.635
  sub61                       79.604       135.143         1.539         0.100         0.738
  sub62                       83.886       144.994         1.723         0.103         0.823
  sub63                       59.654       100.026         1.279         0.086         0.583
  sub64                       74.905       122.597         1.431         0.100         0.678
  sub65                       76.791       126.232         1.480         0.101         0.702
  sub66                       45.097        74.652         1.002         0.062         0.462
  sub67                      126.303       217.099         2.292         0.163         1.103
  sub68                       89.517       153.899         1.789         0.115         0.849
  sub69                       83.985       146.941         1.622         0.109         0.770
  sub70                      127.291       221.969         2.666         0.177         1.231
  sub71                       55.472        96.608         1.219         0.066         0.581
  sub72                       36.753        58.979         0.722         0.047         0.346
  1                           68.937       121.163         1.493         0.100         0.679
  2                           10.325        16.938         0.333         0.020         0.139
  ------------------------------------------------------------------------------------------
  System                    1186.942      2041.220        23.975         1.567        11.283
  
  
  ******************
  Node Depth Summary
  ******************
  
  ---------------------------------------------------------------------------------
                                 Average  Maximum  Maximum  Time of Max    Reported
                                   Depth    Depth      HGL   Occurrence   Max Depth
  Node                 Type       Meters   Meters   Meters  days hr:min      Meters
  ---------------------------------------------------------------------------------
  WS02001211           JUNCTION     0.72     0.79     5.63     0  05:02        0.79
  WS02001212           JUNCTION     0.44     0.51     5.57     0  05:01        0.51
  WS02001213           JUNCTION     0.68     0.76     5.52     0  05:00        0.76
  WS02003069           JUNCTION     0.48     0.58     5.17     0  04:59        0.58
  WS02003072           JUNCTION     0.55     0.64     5.01     0  05:00        0.64
  WS02003073           JUNCTION     0.33     0.40     4.46     0  05:01        0.40
  WS02003060           JUNCTION     0.43     0.52     5.45     0  04:59        0.52
  WS02003066           JUNCTION     0.24     0.30     5.85     0  03:58        0.30
  WS02003059           JUNCTION     0.73     0.81     5.50     0  05:00        0.81
  WS02003067           JUNCTION     0.60     0.70     6.02     0  03:58        0.70
  WS02004401           JUNCTION     0.69     0.86     6.86     0  03:55        0.86
  WS02004402           JUNCTION     0.72     0.89     6.85     0  03:55        0.89
  WS02004403           JUNCTION     0.74     0.90     6.83     0  03:55        0.90
  WS02004404           JUNCTION     0.82     0.97     6.82     0  03:56        0.97
  WS02004406           JUNCTION     0.83     0.96     6.79     0  03:56        0.96
  WS02004409           JUNCTION     0.51     0.67     6.44     0  03:58        0.67
  WS02004410           JUNCTION     0.53     0.69     6.41     0  03:58        0.69
  WS02004411           JUNCTION     0.55     0.70     6.38     0  03:58        0.70
  WS02004412           JUNCTION     0.57     0.70     6.34     0  03:58        0.70
  WS02004413           JUNCTION     0.73     0.86     6.33     0  03:58        0.86
  WS02004405           JUNCTION     0.82     0.97     6.82     0  03:56        0.97
  WS02006109           JUNCTION     0.77     1.01     7.62     0  03:50        1.00
  WS02006110           JUNCTION     0.76     0.94     7.53     0  03:50        0.94
  WS02006111           JUNCTION     0.22     0.29     7.00     0  03:50        0.29
  WS02006112           JUNCTION     0.86     1.10     6.99     0  03:56        1.07
  WS02006113           JUNCTION     0.35     0.46     7.36     0  03:50        0.46
  WS02006115           JUNCTION     0.58     0.77     6.90     0  03:55        0.76
  WS02006116           JUNCTION     0.67     0.84     6.88     0  03:55        0.84
  WS02006230           JUNCTION     0.75     1.14     7.88     0  03:49        1.13
  WS02006231           JUNCTION     0.51     0.89     8.01     0  03:50        0.88
  WS02006232           JUNCTION     0.65     1.08     8.12     0  03:49        1.07
  WS02006234           JUNCTION     0.59     1.09     8.25     0  06:21        1.09
  WS02006235           JUNCTION     0.63     1.18     8.34     0  03:50        1.17
  WS02006238           JUNCTION     0.65     1.21     8.35     0  06:21        1.20
  WS02006240           JUNCTION     0.57     1.16     8.45     0  06:21        1.14
  WS02006242           JUNCTION     0.63     1.24     8.51     0  06:21        1.22
  WS02006243           JUNCTION     0.51     1.14     8.56     0  06:21        1.13
  WS02006245           JUNCTION     0.50     1.13     8.61     0  06:21        1.11
  WS02006247           JUNCTION     0.51     1.14     8.64     0  06:21        1.13
  WS02006248           JUNCTION     0.45     1.08     8.67     0  03:49        1.08
  WS02006249           JUNCTION     0.48     1.09     8.69     0  03:49        1.09
  WS02006239           JUNCTION     0.62     1.20     8.40     0  06:21        1.17
  WS02006251           JUNCTION     0.46     1.44     9.11     0  03:49        1.14
  WS02006252           JUNCTION     0.34     1.01     9.25     0  03:49        0.69
  WS02006253           JUNCTION     0.49     1.45     9.10     0  03:49        1.16
  WS02006256           JUNCTION     1.38     2.35     9.28     0  00:18        2.35
  WS02004138           JUNCTION     0.16     0.20     7.45     0  00:00        0.19
  WS02004139           JUNCTION     0.66     0.74     5.65     0  05:02        0.74
  WS02004407           JUNCTION     0.23     0.30     6.61     0  03:56        0.30
  WS02006228           JUNCTION     0.77     1.05     7.70     0  03:50        1.05
  WS02006229           JUNCTION     0.74     1.05     7.74     0  03:50        1.05
  WS02006280           JUNCTION     0.05     0.17     8.44     0  02:13        0.17
  WS02006284           JUNCTION     0.34     0.51     8.91     0  02:13        0.51
  WS02006287           JUNCTION     0.07     0.24     9.20     0  02:12        0.24
  WSF200               JUNCTION     0.23     0.31     5.54     0  03:58        0.31
  HS02004901           JUNCTION     0.10     0.26    10.08     0  02:10        0.26
  HS02004881           JUNCTION     0.00     0.03     9.06     0  02:12        0.03
  HS02004876           JUNCTION     0.03     0.11     9.14     0  02:08        0.11
  HS02004870           JUNCTION     0.01     0.05     9.34     0  02:13        0.05
  HS02004862           JUNCTION     0.01     0.06     9.44     0  02:13        0.06
  HS02004856           JUNCTION     0.07     0.11     9.54     0  02:13        0.11
  HS02004852           JUNCTION     0.01     0.03     9.55     0  02:14        0.03
  HS02004848           JUNCTION     0.01     0.03     9.64     0  02:12        0.03
  HS02004842           JUNCTION     0.33     0.37     9.64     0  02:12        0.37
  HS02004837           JUNCTION     0.02     0.05     9.63     0  02:12        0.05
  HS02004830           JUNCTION     0.03     0.07     9.54     0  02:13        0.07
  HS02004824           JUNCTION     0.02     0.05     9.45     0  02:15        0.05
  HS02004817           JUNCTION     0.42     0.55     9.40     0  02:13        0.55
  HS02004807           JUNCTION     0.11     0.23     9.40     0  02:13        0.23
  HS02004802           JUNCTION     0.14     0.26     9.39     0  02:13        0.26
  HS02004799           JUNCTION     0.09     0.29     9.51     0  02:11        0.29
  HS02004792           JUNCTION     0.02     0.12     9.64     0  02:10        0.12
  HS02004788           JUNCTION     0.02     0.09     9.99     0  02:11        0.09
  HS02004785           JUNCTION     0.03     0.15    10.05     0  02:11        0.15
  HS02004777           JUNCTION     0.13     0.28    10.07     0  02:10        0.28
  HS02004770           JUNCTION     0.09     0.25    10.08     0  02:10        0.25
  HS02004480           JUNCTION     0.05     0.23     9.47     0  02:11        0.23
  HS02004479           JUNCTION     0.09     0.27     9.47     0  02:11        0.27
  HS02004478           JUNCTION     0.05     0.15     9.38     0  02:12        0.15
  YS02001745           JUNCTION     0.63     0.85     8.36     0  04:08        0.85
  YS02001748           JUNCTION     1.03     1.28     8.36     0  04:07        1.28
  YS02001751           JUNCTION     1.21     1.49     8.37     0  04:13        1.49
  YS02001754           JUNCTION     1.47     1.77     8.38     0  04:13        1.76
  YS02001762           JUNCTION     1.66     1.98     8.38     0  04:10        1.97
  YS02001765           JUNCTION     1.62     1.93     8.38     0  04:38        1.93
  YS02001767           JUNCTION     1.58     1.89     8.38     0  04:38        1.89
  YS02001770           JUNCTION     1.57     1.89     8.38     0  03:48        1.88
  YS02001774           JUNCTION     1.64     1.96     8.38     0  03:54        1.95
  YS02001779           JUNCTION     1.39     1.68     8.37     0  03:44        1.68
  YS02001882           JUNCTION     0.29     0.56     7.28     0  02:43        0.56
  YS02001884           JUNCTION     0.39     0.66     7.28     0  02:43        0.66
  YS02001759           JUNCTION     1.70     2.02     8.38     0  04:06        2.01
  YS02001887           JUNCTION     0.47     0.74     7.28     0  02:43        0.74
  YS02001890           JUNCTION     0.50     0.77     7.27     0  02:43        0.77
  YS02001898           JUNCTION     0.27     0.52     7.26     0  02:43        0.52
  YS02001901           JUNCTION     0.38     0.65     7.26     0  02:42        0.65
  YS02001904           JUNCTION     0.36     0.63     7.26     0  02:44        0.63
  YS02001907           JUNCTION     0.70     0.97     7.26     0  02:44        0.97
  YS02001910           JUNCTION     0.48     0.75     7.26     0  02:45        0.75
  YS02001915           JUNCTION     0.28     0.54     7.26     0  02:43        0.54
  YS02001918           JUNCTION     0.09     0.19     7.26     0  02:44        0.19
  YS02001619           JUNCTION     1.17     1.50     8.43     0  03:48        1.47
  YS02001629           JUNCTION     1.52     1.85     8.40     0  03:48        1.84
  YS02001641           JUNCTION     1.63     1.94     8.38     0  05:42        1.93
  YS02001644           JUNCTION     1.64     1.92     8.35     0  03:38        1.92
  YS02001652           JUNCTION     1.48     1.82     8.41     0  04:37        1.80
  YS02001655           JUNCTION     1.24     1.76     8.61     0  02:57        1.57
  YS02001920           JUNCTION     0.19     0.26     7.27     0  02:45        0.26
  YS02001923           JUNCTION     0.07     0.10     7.36     0  03:01        0.10
  YS02001926           JUNCTION     0.15     0.20     7.65     0  03:01        0.20
  YS02001929           JUNCTION     0.07     0.10     7.80     0  03:01        0.10
  YS02001658           JUNCTION     0.97     1.33     8.47     0  03:46        1.29
  YS02001661           JUNCTION     0.74     1.09     8.49     0  03:46        1.05
  YS02001664           JUNCTION     0.29     0.55     8.48     0  03:47        0.55
  YS02001622           JUNCTION     1.20     1.52     8.42     0  05:42        1.49
  YS02001633           JUNCTION     1.62     1.97     8.42     0  05:42        1.93
  YS02001649           JUNCTION     1.67     2.00     8.39     0  04:37        1.99
  YS02001757           JUNCTION     1.80     2.12     8.38     0  04:37        2.11
  YS02001895           JUNCTION     0.26     0.52     7.27     0  02:42        0.52
  YS02001625           JUNCTION     1.48     1.78     8.38     0  03:38        1.78
  YS02163301           JUNCTION     1.55     1.90     8.42     0  05:42        1.87
  YS02163601           JUNCTION     1.67     2.01     8.41     0  05:42        1.98
  YS02164001           JUNCTION     1.61     1.94     8.40     0  05:42        1.91
  YS02001647           JUNCTION     1.46     1.76     8.37     0  04:06        1.76
  YSB1154              JUNCTION     0.23     0.42     9.48     0  02:11        0.42
  YSB6556              JUNCTION     0.12     0.31     9.47     0  02:11        0.31
  YSB1174              JUNCTION     0.18     0.37     9.47     0  02:11        0.37
  YSB1171              JUNCTION     0.38     0.57     9.47     0  02:11        0.57
  YS02006553           JUNCTION     0.70     0.97     7.25     0  02:43        0.97
  YS02006561           JUNCTION     0.14     0.29     6.95     0  02:37        0.28
  YS02006556           JUNCTION     0.67     0.94     7.25     0  02:44        0.94
  YS02006558           JUNCTION     0.72     0.98     7.25     0  02:44        0.98
  YS02001783           JUNCTION     0.26     0.70     6.84     0  02:28        0.70
  YS02001784           JUNCTION     0.29     0.76     6.83     0  02:28        0.73
  YS02001786           JUNCTION     0.25     0.74     6.77     0  02:28        0.74
  YS02001788           JUNCTION     0.19     0.78     6.76     0  03:19        0.74
  YS02001790           JUNCTION     0.25     1.28     6.93     0  02:25        1.04
  YS02001791           JUNCTION     0.20     2.37     7.84     0  04:36        1.16
  YS02001793           JUNCTION     0.22     2.12     6.95     0  04:32        1.78
  WSC                  OUTFALL      0.33     0.40     1.07     0  05:01        0.40
  JK-storage           STORAGE      1.55     5.80     6.60     0  02:26        5.80
  CC-storage           STORAGE      1.07     1.35     8.35     0  04:12        1.35
  XR-storage           STORAGE      2.70     5.46     3.46     0  06:36        5.46
  
  
  *******************
  Node Inflow Summary
  *******************
  
  -------------------------------------------------------------------------------------------------
                                  Maximum  Maximum                  Lateral       Total        Flow
                                  Lateral    Total  Time of Max      Inflow      Inflow     Balance
                                   Inflow   Inflow   Occurrence      Volume      Volume       Error
  Node                 Type           LPS      LPS  days hr:min    10^6 ltr    10^6 ltr     Percent
  -------------------------------------------------------------------------------------------------
  WS02001211           JUNCTION      7.35   388.99     0  04:21       0.207        8.68       0.458
  WS02001212           JUNCTION      0.00   390.49     0  04:20           0        8.65       0.246
  WS02001213           JUNCTION      0.00   392.02     0  04:20           0        8.64       0.342
  WS02003069           JUNCTION      0.32   944.40     0  04:59     0.00902        16.7       0.188
  WS02003072           JUNCTION      0.00   944.33     0  05:00           0        16.7       0.230
  WS02003073           JUNCTION      1.82   946.17     0  05:00      0.0514        16.7       0.259
  WS02003060           JUNCTION     16.53   944.05     0  04:58       0.466        16.7       0.178
  WS02003066           JUNCTION      0.00   546.18     0  03:58           0        7.72       0.049
  WS02003059           JUNCTION      0.00   394.50     0  04:19           0        8.62       0.454
  WS02003067           JUNCTION      0.00   546.00     0  03:58           0        7.73       0.106
  WS02004401           JUNCTION      0.00   554.06     0  03:55           0        7.93       0.240
  WS02004402           JUNCTION      0.00   553.30     0  03:55           0        7.91       0.228
  WS02004403           JUNCTION      0.00   552.87     0  03:55           0        7.89       0.211
  WS02004404           JUNCTION      0.16   552.84     0  03:56     0.00457        7.88       0.163
  WS02004406           JUNCTION      0.00   552.79     0  03:56           0        7.85       0.394
  WS02004409           JUNCTION      0.00   552.48     0  03:56           0        7.81       0.168
  WS02004410           JUNCTION      0.00   549.83     0  03:56           0         7.8       0.196
  WS02004411           JUNCTION      0.00   547.90     0  03:57           0        7.79       0.204
  WS02004412           JUNCTION      0.00   546.83     0  03:57           0        7.77       0.225
  WS02004413           JUNCTION      0.00   546.11     0  03:58           0        7.75       0.345
  WS02004405           JUNCTION      0.04   552.86     0  03:56     0.00107        7.87       0.240
  WS02006109           JUNCTION      1.23   561.54     0  03:50      0.0347           8       0.206
  WS02006110           JUNCTION      0.00   561.17     0  03:50           0        7.99       0.233
  WS02006111           JUNCTION      0.00   583.02     0  03:50           0        7.96       0.044
  WS02006112           JUNCTION     12.06   562.45     0  03:50      0.0345        7.99       0.350
  WS02006113           JUNCTION      0.00   561.76     0  03:50           0        7.97       0.101
  WS02006115           JUNCTION      0.00   570.51     0  03:55           0        7.96       0.221
  WS02006116           JUNCTION      0.00   555.95     0  03:55           0        7.95       0.186
  WS02006230           JUNCTION     10.28   537.26     0  06:21        0.29        6.88       0.151
  WS02006231           JUNCTION      0.00   526.31     0  06:21           0         6.6       0.141
  WS02006232           JUNCTION      0.00   525.69     0  06:21           0        6.61       0.212
  WS02006234           JUNCTION      0.00   524.67     0  06:21           0        6.62       0.101
  WS02006235           JUNCTION      0.00   524.41     0  06:14           0         6.7       0.134
  WS02006238           JUNCTION      0.00   363.21     0  07:12           0        4.18       0.160
  WS02006240           JUNCTION      0.00   366.84     0  07:11           0        4.14       0.256
  WS02006242           JUNCTION      0.00   368.34     0  07:11           0        4.12       0.311
  WS02006243           JUNCTION      0.00   372.05     0  04:41           0         4.1       0.083
  WS02006245           JUNCTION      0.00   379.03     0  04:41           0         4.1       0.190
  WS02006247           JUNCTION      0.00   383.85     0  04:41           0         4.1       0.161
  WS02006248           JUNCTION      0.00   389.12     0  04:41           0        4.11       0.112
  WS02006249           JUNCTION      0.00   424.81     0  06:14           0        4.21       0.221
  WS02006239           JUNCTION      0.00   363.98     0  07:11           0        4.16       0.111
  WS02006251           JUNCTION      0.08   411.44     0  06:14     0.00217        4.26       0.208
  WS02006252           JUNCTION      0.00   400.00     0  04:40           0        4.02       0.012
  WS02006253           JUNCTION      1.74   118.51     0  06:12     0.00447       0.241       1.671
  WS02006256           JUNCTION      0.00   983.00     0  02:40           0        5.14       0.050
  WS02004138           JUNCTION      0.00   380.00     0  00:00           0        8.49       0.078
  WS02004139           JUNCTION      0.32   394.45     0  00:00     0.00905         8.5       0.531
  WS02004407           JUNCTION      0.00   552.70     0  03:56           0        7.82       0.076
  WS02006228           JUNCTION      0.00   560.27     0  03:50           0        7.98       0.151
  WS02006229           JUNCTION      0.00   556.22     0  03:51           0           8       0.163
  WS02006280           JUNCTION      0.00   282.21     0  02:13           0        1.13       0.006
  WS02006284           JUNCTION      0.10   282.18     0  02:12      0.0027        1.13       0.105
  WS02006287           JUNCTION      0.00   282.05     0  02:12           0        1.13       0.063
  WSF200               JUNCTION      0.00   546.24     0  03:58           0        7.71       0.043
  HS02004901           JUNCTION     14.80    14.80     0  02:07      0.0415      0.0417       4.401
  HS02004881           JUNCTION      6.11    55.47     0  02:12      0.0181       0.192       0.067
  HS02004876           JUNCTION     10.13    49.57     0  02:12      0.0348       0.175       0.304
  HS02004870           JUNCTION     10.97    39.66     0  02:12      0.0343        0.14       0.076
  HS02004862           JUNCTION      9.30    29.34     0  02:13        0.04       0.106       0.160
  HS02004856           JUNCTION      8.15    20.12     0  02:12      0.0258      0.0672       2.193
  HS02004852           JUNCTION      0.00    12.42     0  02:12           0      0.0414       0.124
  HS02004848           JUNCTION     19.00    19.00     0  02:14      0.0822      0.0822       0.053
  HS02004842           JUNCTION      0.00     7.14     0  02:23           0      0.0538      31.847
  HS02004837           JUNCTION     24.23    30.36     0  02:11       0.239        0.28       0.290
  HS02004830           JUNCTION      0.15    30.49     0  02:12     0.00423        0.27       0.459
  HS02004824           JUNCTION     21.55    51.85     0  02:15       0.108       0.376       0.143
  HS02004817           JUNCTION      0.60    52.44     0  02:15      0.0169       0.393       4.432
  HS02004807           JUNCTION     20.54    71.44     0  02:14      0.0631       0.439       0.971
  HS02004802           JUNCTION      0.00    71.85     0  02:15           0       0.435       0.943
  HS02004799           JUNCTION     15.98   179.38     0  02:10      0.0511       0.603       0.395
  HS02004792           JUNCTION     70.32   163.64     0  02:10       0.221       0.552       0.074
  HS02004788           JUNCTION     23.46    95.13     0  02:11       0.118       0.332       0.116
  HS02004785           JUNCTION      0.15    72.00     0  02:10     0.00423       0.216       0.222
  HS02004777           JUNCTION      0.03    72.32     0  02:09    0.000846       0.216       2.450
  HS02004770           JUNCTION     59.34    73.24     0  02:08       0.178       0.218       1.444
  HS02004480           JUNCTION      0.00   211.77     0  02:11           0       0.706       0.107
  HS02004479           JUNCTION      0.00    33.08     0  02:12           0       0.116       0.632
  HS02004478           JUNCTION      0.00   282.04     0  02:12           0        1.13       0.051
  YS02001745           JUNCTION    110.30   124.15     0  03:02        1.16        1.16       0.636
  YS02001748           JUNCTION      0.04   307.33     0  02:51     0.00127        1.17       1.816
  YS02001751           JUNCTION      0.01   361.74     0  02:49     0.00031        1.15       1.914
  YS02001754           JUNCTION      0.26   187.18     0  02:55     0.00733        1.12       2.200
  YS02001762           JUNCTION      0.00   178.17     0  02:49           0        1.26       1.703
  YS02001765           JUNCTION      0.00   174.61     0  02:49           0        1.27       1.976
  YS02001767           JUNCTION      0.54   172.37     0  02:49      0.0151        1.29       2.840
  YS02001770           JUNCTION    141.67   172.47     0  02:49        1.34        1.36       2.384
  YS02001774           JUNCTION      0.00    50.08     0  02:10           0      0.0695      57.159
  YS02001779           JUNCTION      0.01    41.09     0  02:52    0.000141      0.0289     112.097
  YS02001882           JUNCTION      0.00     4.88     0  02:03           0     0.00701      35.008
  YS02001884           JUNCTION      0.00    13.92     0  02:04           0      0.0275      23.200
  YS02001759           JUNCTION    138.55   317.54     0  02:49        1.25        2.48       0.932
  YS02001887           JUNCTION    182.22   182.41     0  02:33        1.47        1.48       0.506
  YS02001890           JUNCTION      0.00   181.58     0  02:33           0        1.45       0.565
  YS02001898           JUNCTION      0.00   180.36     0  02:34           0        1.44       0.170
  YS02001901           JUNCTION      0.00   180.00     0  02:34           0        1.44       0.408
  YS02001904           JUNCTION      0.00   179.43     0  02:39           0        1.44       0.378
  YS02001907           JUNCTION      0.00   330.07     0  02:49           0        3.11       0.730
  YS02001910           JUNCTION      0.00   153.87     0  02:59           0        1.69       0.630
  YS02001915           JUNCTION     98.76   150.33     0  02:59       0.989        1.69       0.291
  YS02001918           JUNCTION      0.00    51.48     0  03:00           0       0.703       0.192
  YS02001619           JUNCTION     96.04    96.04     0  02:46       0.978       0.978       1.221
  YS02001629           JUNCTION      0.00   198.01     0  02:53           0       0.898       3.239
  YS02001641           JUNCTION      0.00   217.68     0  02:50           0        1.95       1.080
  YS02001644           JUNCTION    104.80   321.55     0  02:50        1.12         3.1       0.848
  YS02001652           JUNCTION      0.00   179.14     0  02:57           0        1.04       2.316
  YS02001655           JUNCTION      0.15   360.33     0  02:55     0.00434        1.06       2.038
  YS02001920           JUNCTION      2.87    50.64     0  03:01      0.0809       0.705       0.326
  YS02001923           JUNCTION      0.04    47.77     0  03:01     0.00106       0.624       0.058
  YS02001926           JUNCTION      0.05    47.78     0  03:01     0.00147       0.626       0.404
  YS02001929           JUNCTION     47.74    47.74     0  03:01       0.625       0.625       0.056
  YS02001658           JUNCTION      0.00   359.49     0  02:57           0        1.11       1.678
  YS02001661           JUNCTION      0.00   447.76     0  03:47           0        1.49       0.373
  YS02001664           JUNCTION    129.31   388.05     0  03:46        1.08        1.46       0.181
  YS02001622           JUNCTION      0.00   144.10     0  02:55           0       0.967       3.353
  YS02001633           JUNCTION    106.50   218.94     0  02:50        1.15        2.01       1.624
  YS02001649           JUNCTION      0.00   479.16     0  02:57           0        3.64       1.030
  YS02001757           JUNCTION      0.00   835.29     0  02:50           0        7.06       1.323
  YS02001895           JUNCTION      0.00   180.90     0  02:34           0        1.45       0.277
  YS02001625           JUNCTION      0.00   198.71     0  02:53           0       0.936       4.366
  YS02163301           JUNCTION      0.00   111.89     0  02:50           0       0.881       2.793
  YS02163601           JUNCTION      0.11   218.28     0  02:50      0.0031        1.97       1.548
  YS02164001           JUNCTION      0.00   218.53     0  02:50           0        1.95       1.046
  YS02001647           JUNCTION      0.00   321.88     0  02:50           0         2.7       1.048
  YSB1154              JUNCTION     18.02    18.02     0  02:10      0.0619      0.0631       2.340
  YSB6556              JUNCTION      0.00    17.93     0  02:12           0      0.0641       1.984
  YSB1174              JUNCTION     16.60    16.60     0  02:06      0.0451      0.0458       2.885
  YSB1171              JUNCTION      0.00    33.00     0  02:11           0       0.115       5.806
  YS02006553           JUNCTION      0.00   331.34     0  02:58           0         3.1       0.473
  YS02006561           JUNCTION      0.00   517.44     0  02:49           0        4.39       0.012
  YS02006556           JUNCTION      0.00   330.55     0  02:49           0        3.11       0.342
  YS02006558           JUNCTION    154.05   484.48     0  02:49        1.34        4.42       0.108
  YS02001783           JUNCTION      0.00   479.38     0  02:49           0        4.39       0.039
  YS02001784           JUNCTION      1.06   491.78     0  02:37      0.0299        4.42       0.059
  YS02001786           JUNCTION      0.06   507.91     0  02:37     0.00159        4.42       0.059
  YS02001788           JUNCTION      0.07   552.46     0  02:36       0.002        4.42       0.035
  YS02001790           JUNCTION      0.15   600.12     0  02:36     0.00437        4.42       0.005
  YS02001791           JUNCTION      0.00   640.14     0  02:36           0        4.42       0.016
  YS02001793           JUNCTION      0.00   665.27     0  02:37           0        4.43      -0.047
  WSC                  OUTFALL       0.00   946.22     0  05:01           0        16.6       0.000
  JK-storage           STORAGE       0.00   733.28     0  02:40           0        4.58     -16.903
  CC-storage           STORAGE       0.00   837.88     0  02:50           0        6.95       0.814
  XR-storage           STORAGE     400.38   400.38     0  02:49        7.98        8.58      -0.138
  
  
  **********************
  Node Surcharge Summary
  **********************
  
  Surcharging occurs when water rises above the top of the highest conduit.
  ---------------------------------------------------------------------
                                               Max. Height   Min. Depth
                                   Hours       Above Crown    Below Rim
  Node                 Type      Surcharged         Meters       Meters
  ---------------------------------------------------------------------
  WS02006109           JUNCTION        2.56          0.187        1.633
  WS02006110           JUNCTION        0.69          0.033        1.817
  WS02006112           JUNCTION        0.89          0.103        1.577
  WS02006230           JUNCTION        0.57          0.057        1.513
  WS02006231           JUNCTION        0.93          0.175        1.355
  WS02006232           JUNCTION        2.09          0.382        1.098
  WS02006234           JUNCTION        1.89          0.372        0.868
  WS02006235           JUNCTION        2.02          0.471        0.819
  WS02006238           JUNCTION        2.05          0.489        0.941
  WS02006240           JUNCTION        1.85          0.450        0.940
  WS02006242           JUNCTION        1.97          0.511        0.309
  WS02006243           JUNCTION        1.24          0.435        0.335
  WS02006245           JUNCTION        1.08          0.417        0.433
  WS02006247           JUNCTION        1.10          0.429        0.331
  WS02006248           JUNCTION        0.95          0.362        0.018
  WS02006249           JUNCTION        0.99          0.390        0.000
  WS02006239           JUNCTION        1.92          0.456        0.834
  WS02006251           JUNCTION        0.52          0.412        0.768
  WS02006252           JUNCTION        1.86          0.608        0.492
  WS02006253           JUNCTION        0.54          0.413        2.067
  WS02006256           JUNCTION        6.51          2.050        0.000
  WS02006228           JUNCTION        2.52          0.223        1.977
  YS02001748           JUNCTION        3.42          0.205        0.985
  YS02001751           JUNCTION        4.75          0.494        0.706
  YS02001754           JUNCTION        5.15          0.720        0.430
  YS02001762           JUNCTION        5.50          0.982        0.168
  YS02001765           JUNCTION        5.47          0.933        0.167
  YS02001767           JUNCTION        5.45          0.893        0.137
  YS02001770           JUNCTION        5.43          0.856        0.064
  YS02001774           JUNCTION        5.48          0.957        0.093
  YS02001779           JUNCTION        5.04          0.680        0.000
  YS02001759           JUNCTION        5.52          1.019        0.191
  YS02001619           JUNCTION        4.70          0.502        0.108
  YS02001629           JUNCTION        4.70          0.470        0.000
  YS02001641           JUNCTION        5.48          0.943        0.157
  YS02001644           JUNCTION        5.48          0.920        0.000
  YS02001652           JUNCTION        5.28          0.786        0.344
  YS02001655           JUNCTION        4.80          0.764        0.436
  YS02001658           JUNCTION        3.57          0.325        0.975
  YS02001661           JUNCTION        0.01          0.016        1.374
  YS02001622           JUNCTION        4.74          0.516        0.104
  YS02001633           JUNCTION        5.46          0.946        0.114
  YS02001649           JUNCTION        5.50          1.004        0.046
  YS02001757           JUNCTION        5.58          1.121        0.089
  YS02001625           JUNCTION        5.37          0.780        0.000
  YS02163301           JUNCTION        5.44          0.899        0.131
  YS02163601           JUNCTION        5.50          1.011        0.069
  YS02164001           JUNCTION        5.47          0.940        0.160
  YS02001647           JUNCTION        5.32          0.763        0.137
  YS02001790           JUNCTION        0.56          0.482        0.675
  YS02001791           JUNCTION        0.67          1.573        0.347
  YS02001793           JUNCTION        0.89          1.121        1.479
  
  
  *********************
  Node Flooding Summary
  *********************
  
  Flooding refers to all water that overflows a node, whether it ponds or not.
  --------------------------------------------------------------------------
                                                             Total   Maximum
                                 Maximum   Time of Max       Flood    Ponded
                        Hours       Rate    Occurrence      Volume     Depth
  Node                 Flooded       LPS   days hr:min    10^6 ltr    Meters
  --------------------------------------------------------------------------
  WS02006249              0.46    102.81      0  03:49       0.091     0.000
  WS02006256              2.17    788.50      0  04:50       2.560     0.000
  YS02001779              0.36      9.90      0  03:48       0.002     0.000
  YS02001629              0.01      3.79      0  03:49       0.000     0.000
  YS02001644              1.35    266.44      0  04:18       0.420     0.000
  YS02001625              0.09     22.07      0  03:49       0.002     0.000
  JK-storage              0.31    424.26      0  03:20       0.219     0.000
  
  
  **********************
  Storage Volume Summary
  **********************
  
  --------------------------------------------------------------------------------------------------
                         Average     Avg  Evap Exfil       Maximum     Max    Time of Max    Maximum
                          Volume    Pcnt  Pcnt  Pcnt        Volume    Pcnt     Occurrence    Outflow
  Storage Unit           1000 m3    Full  Loss  Loss       1000 m3    Full    days hr:min        LPS
  --------------------------------------------------------------------------------------------------
  JK-storage               0.078      27     0     0         0.291     100       0  02:26     983.00
  CC-storage               2.992      19     0     0         3.775      24       0  04:12     400.00
  XR-storage               0.324      35     0     0         0.655      71       0  06:36     380.00
  
  
  ***********************
  Outfall Loading Summary
  ***********************
  
  ---------------------------------------------------------------------------------------------------------------------------------
                         Flow       Avg       Max       Total         Total         Total         Total         Total         Total
                         Freq      Flow      Flow      Volume           COD            SS            TN            TP         NH4-N
  Outfall Node           Pcnt       LPS       LPS    10^6 ltr            kg            kg            kg            kg            kg
  ---------------------------------------------------------------------------------------------------------------------------------
  WSC                  100.00    698.80    946.22      16.623      2055.304      3362.729       160.945        19.546        99.082
  ---------------------------------------------------------------------------------------------------------------------------------
  System               100.00    698.80    946.22      16.623      2055.304      3362.729       160.945        19.546        99.082
  
  
  ********************
  Link Flow Summary
  ********************
  
  -----------------------------------------------------------------------------
                                 Maximum  Time of Max   Maximum    Max/    Max/
                                  |Flow|   Occurrence   |Veloc|    Full    Full
  Link                 Type          LPS  days hr:min     m/sec    Flow   Depth
  -----------------------------------------------------------------------------
  WS02003066WSF200     CONDUIT    546.24     0  03:58      2.87    0.09    0.23
  WS02006287WS02006284 CONDUIT    282.09     0  02:12      1.80    0.13    0.25
  WS02006284WS02006280 CONDUIT    282.21     0  02:13      2.04    0.12    0.23
  WS02006280WS02006229 CONDUIT    282.22     0  02:13      3.29    0.06    0.17
  WS02006229WS02006228 CONDUIT    560.27     0  03:50      1.11    1.86    1.00
  WS02006256WS02006235 CONDUIT    259.49     0  00:18      3.67    2.75    1.00
  WS02006253WS02006251 CONDUIT    117.88     0  06:12      0.55    0.35    1.00
  WS02006252WS02006251 CONDUIT    403.81     0  06:14      3.21    1.48    1.00
  WS02006251WS02006249 CONDUIT    424.81     0  06:14      1.10    1.22    1.00
  WS02006249WS02006248 CONDUIT    389.12     0  04:41      1.14    2.13    1.00
  WS02006248WS02006247 CONDUIT    383.85     0  04:41      1.11    0.84    1.00
  WS02006247WS02006245 CONDUIT    379.03     0  04:41      1.08    3.01    1.00
  WS02006245WS02006243 CONDUIT    372.05     0  04:41      1.09    1.10    1.00
  WS02006243WS02006242 CONDUIT    368.34     0  07:11      1.00    0.79    1.00
  WS02006242WS02006240 CONDUIT    366.84     0  07:11      0.97    1.46    1.00
  WS02006240WS02006239 CONDUIT    363.98     0  07:11      1.00    1.15    1.00
  WS02006239WS02006238 CONDUIT    363.21     0  07:12      0.95    1.16    1.00
  WS02006238WS02006235 CONDUIT    362.96     0  07:12      0.95    0.81    1.00
  WS02006235WS02006234 CONDUIT    524.67     0  06:21      1.36    5.54    1.00
  WS02006234WS02006232 CONDUIT    525.69     0  06:21      1.37    1.06    1.00
  WS02006232WS02006231 CONDUIT    526.31     0  06:21      1.37    1.10    1.00
  WS02006231WS02006230 CONDUIT    526.98     0  06:21      1.42    7.99    1.00
  WS02006230WS02006229 CONDUIT    540.52     0  06:21      1.40   12.03    1.00
  WS02006228WS02006109 CONDUIT    560.31     0  03:50      1.11    2.45    1.00
  WS02006116WS02004401 CONDUIT    554.06     0  03:55      0.96    0.76    0.85
  WS02006115WS02006116 CONDUIT    555.95     0  03:55      1.05    0.71    0.77
  WS02006113WS02006111 CONDUIT    583.02     0  03:50      2.50    0.70    0.47
  WS02006112WS02006115 CONDUIT    570.51     0  03:55      0.79    0.34    0.88
  WS02006111WS02006112 CONDUIT    562.15     0  03:50      1.55    0.27    0.68
  WS02006110WS02006113 CONDUIT    561.76     0  03:50      1.32    0.51    0.79
  WS02006109WS02006110 CONDUIT    561.17     0  03:50      1.12    1.08    1.00
  WS02004411WS02004412 CONDUIT    546.83     0  03:57      0.93    0.78    0.70
  WS02004401WS02004402 CONDUIT    553.30     0  03:55      0.96    0.66    0.88
  WS02004413WS02003067 CONDUIT    546.00     0  03:58      1.12    0.23    0.60
  WS02004412WS02004413 CONDUIT    546.11     0  03:58      0.83    0.37    0.78
  WS02004410WS02004411 CONDUIT    547.90     0  03:57      0.95    0.75    0.69
  WS02004409WS02004410 CONDUIT    549.83     0  03:56      0.98    0.71    0.68
  WS02004407WS02004409 CONDUIT    552.48     0  03:56      1.50    0.20    0.49
  WS02004406WS02004407 CONDUIT    552.70     0  03:56      1.06    0.25    0.63
  WS02004405WS02004406 CONDUIT    552.79     0  03:56      0.96    1.09    0.96
  WS02004404WS02004405 CONDUIT    552.83     0  03:56      1.13    5.42    0.97
  WS02004403WS02004404 CONDUIT    552.68     0  03:56      0.97    0.40    0.94
  WS02004402WS02004403 CONDUIT    552.87     0  03:55      0.99    0.79    0.89
  WS02004139WS02001211 CONDUIT    381.64     0  04:21      0.90    0.48    0.60
  WS02004138WS02004139 CONDUIT    394.13     0  00:00      3.62    0.08    0.44
  WS02003067WS02003066 CONDUIT    546.18     0  03:58      1.22    0.18    0.42
  WS02001213WS02003059 CONDUIT    394.50     0  04:19      0.89    0.65    0.78
  WS02001212WS02001213 CONDUIT    392.02     0  04:20      1.32    0.60    0.47
  WS02001211WS02001212 CONDUIT    390.49     0  04:20      0.78    0.30    0.65
  WS02003072WS02003073 CONDUIT    944.35     0  05:00      1.73    2.04    0.49
  WS02003069WS02003072 CONDUIT    944.33     0  05:00      1.62    0.45    0.51
  WS02003060WS02003069 CONDUIT    944.08     0  04:59      1.87    0.37    0.46
  WS02003059WS02003060 CONDUIT    397.84     0  04:19      0.95    0.26    0.66
  HS02004901HS02004770 CONDUIT     14.11     0  02:10      0.06    0.05    0.36
  HS02004876HS02004881 CONDUIT     49.74     0  02:12      0.73    0.53    0.10
  HS02004870HS02004876 CONDUIT     39.63     0  02:13      0.51    0.03    0.11
  HS02004842HS02004848 CONDUIT      7.14     0  02:23      0.04    0.00    0.29
  HS02004837HS02004842 CONDUIT      7.41     0  02:23      0.42    0.00    0.30
  HS02004830HS02004837 CONDUIT     30.34     0  02:12      0.49    0.03    0.09
  HS02004824HS02004830 CONDUIT     30.48     0  02:13      0.53    0.04    0.08
  HS02004817HS02004824 CONDUIT     51.84     0  02:15      0.17    0.02    0.43
  HS02004770HS02004777 CONDUIT     72.29     0  02:09      0.28    0.13    0.37
  HS02004799HS02004480 CONDUIT    179.14     0  02:10      0.70    0.23    0.37
  HS02004792HS02004799 CONDUIT    163.55     0  02:10      0.79    0.10    0.29
  HS02004788HS02004792 CONDUIT     95.05     0  02:11      0.93    0.06    0.15
  HS02004785HS02004788 CONDUIT     71.92     0  02:11      0.60    0.54    0.17
  HS02004777HS02004785 CONDUIT     71.85     0  02:10      0.34    0.09    0.31
  HS02004480HS02004478 CONDUIT    211.78     0  02:11      1.09    0.89    0.28
  HS02004479HS02004480 CONDUIT     33.35     0  02:13      0.17    0.03    0.36
  HS02004862HS02004870 CONDUIT     29.29     0  02:13      0.54    0.03    0.08
  HS02004848HS02004852 CONDUIT     12.42     0  02:12      0.37    0.01    0.05
  HS02004856HS02004862 CONDUIT     20.08     0  02:13      0.40    0.02    0.07
  HS02004852HS02004856 CONDUIT     12.38     0  02:14      0.17    0.01    0.10
  HS02004802HS02004478 CONDUIT     72.41     0  02:16      0.36    0.06    0.30
  HS02004478WS02006287 CONDUIT    282.05     0  02:12      1.50    0.08    0.21
  HS02004817HS02004807 CONDUIT     53.19     0  02:17      0.14    0.03    0.56
  HS02004807HS02004802 CONDUIT     71.85     0  02:15      0.30    0.14    0.34
  YS02001759YS02001757 CONDUIT    320.06     0  02:49      0.41    0.23    1.00
  YS02001762YS02001759 CONDUIT    181.30     0  02:49      0.23    0.21    1.00
  YS02001765YS02001762 CONDUIT    178.17     0  02:49      0.25    0.17    1.00
  YS02001770YS02001767 CONDUIT    171.84     0  02:49      0.29    0.68    1.00
  YS02001774YS02001770 CONDUIT     50.08     0  02:10      0.14    0.03    1.00
  YS02001779YS02001774 CONDUIT     41.09     0  02:52      0.07    0.02    1.00
  YS02001649YS02001757 CONDUIT    479.76     0  02:57      0.61    0.29    1.00
  YS02001767YS02001765 CONDUIT    174.61     0  02:49      0.27    0.22    1.00
  YS02006561YS02001783 CONDUIT    479.38     0  02:49      1.97    0.25    0.61
  YS02001783YS02001784 CONDUIT    490.72     0  02:37      1.42    0.68    0.90
  YS02001784YS02001785 CONDUIT    507.86     0  02:37      1.55    1.18    0.94
  YS02001788YS02001790 CONDUIT    599.97     0  02:36      2.08    0.44    0.99
  YS02001790YS02001791 CONDUIT    640.14     0  02:36      2.46    0.70    1.00
  YS02001791YS02001793 CONDUIT    665.27     0  02:37      5.00    0.29    1.00
  YS02001910YS02001907 CONDUIT    154.85     0  02:58      0.49    0.09    0.85
  YS02001786YS02001788 CONDUIT    552.39     0  02:36      2.02    1.06    0.94
  YS02001915YS02001910 CONDUIT    153.87     0  02:59      0.45    0.08    0.64
  YS02001918YS02001915 CONDUIT     53.64     0  02:59      0.44    0.03    0.36
  YS02001923YS02001920 CONDUIT     47.77     0  03:01      0.53    0.02    0.18
  YS02001926YS02001923 CONDUIT     47.73     0  03:01      0.58    0.07    0.16
  YS02001929YS02001926 CONDUIT     47.73     0  03:01      0.62    0.02    0.15
  YS02001920YS02001918 CONDUIT     51.48     0  03:00      0.53    0.05    0.23
  YS02001629YS02163301 CONDUIT    111.89     0  02:50      0.14    0.14    1.00
  YS02001619YS02001622 CONDUIT    144.10     0  02:55      0.69    0.21    1.00
  YS02001622YS02001625 CONDUIT    198.71     0  02:53      0.29    0.11    1.00
  YS02001625YS02001629 CONDUIT    198.01     0  02:53      0.28    0.09    1.00
  YS02163301YS02001633 CONDUIT    112.43     0  02:50      0.14    0.11    1.00
  YS02163601YS02164001 CONDUIT    218.53     0  02:50      0.28    0.19    1.00
  YS02164001YS02001641 CONDUIT    217.68     0  02:50      0.28    0.30    1.00
  YS02001641YS02001644 CONDUIT    216.76     0  02:50      0.28    0.70    1.00
  YS02001647YS02001649 CONDUIT    320.92     0  02:51      0.41    0.17    1.00
  YS02006553YS02006556 CONDUIT    330.55     0  02:49      0.43    0.28    0.93
  YS02006556YS02006558 CONDUIT    334.72     0  02:49      0.43    0.26    0.96
  YSB6556YSB1171       CONDUIT     18.26     0  02:13      0.07    0.02    0.63
  YS02001907YS02006553 CONDUIT    331.34     0  02:58      0.37    0.39    1.00
  YS02006558YS02006561 CONDUIT    517.44     0  02:49      2.77    1.14    0.63
  YS02001633YS02163601 CONDUIT    218.17     0  02:50      0.28    0.23    1.00
  YS02001644YS02001647 CONDUIT    321.88     0  02:50      0.41    0.19    1.00
  YS02001745YS02001748 CONDUIT    251.44     0  02:51      1.53    0.10    0.92
  YS02001748YS02001751 CONDUIT    361.73     0  02:49      1.17    0.18    1.00
  YS02001751YS02001754 CONDUIT    186.92     0  02:55      0.91    0.09    1.00
  YS02001754YS02001757 CONDUIT    189.86     0  02:53      0.33    0.08    1.00
  YS02001882YS02001884 CONDUIT      4.88     0  02:03      0.07    0.01    0.58
  YS02001884YS02001887 CONDUIT     13.92     0  02:04      0.05    0.02    0.67
  YS02001890YS02001895 CONDUIT    180.90     0  02:34      0.35    0.08    0.64
  YS02001895YS02001898 CONDUIT    180.36     0  02:34      0.47    0.31    0.51
  YS02001898YS02001901 CONDUIT    180.00     0  02:34      0.38    0.12    0.59
  YS02001901YS02001904 CONDUIT    179.43     0  02:39      0.35    0.28    0.64
  YS02001904YS02001907 CONDUIT    179.62     0  02:38      0.27    0.06    0.80
  YS02001887YS02001890 CONDUIT    181.58     0  02:33      0.30    0.31    0.73
  YS02001652YS02001649 CONDUIT    180.79     0  02:57      0.38    0.09    1.00
  YS02001655YS02001652 CONDUIT    179.14     0  02:57      0.95    0.09    1.00
  YS02001658YS02001655 CONDUIT    360.17     0  02:55      1.35    0.15    1.00
  YS02001661YS02001658 CONDUIT    359.49     0  02:57      1.60    0.14    1.00
  YS02001664YS02001661 CONDUIT    447.76     0  03:47      1.34    0.14    0.70
  YSB1154YSB6556       CONDUIT     17.93     0  02:12      0.19    0.03    0.52
  YSB1174YSB1171       CONDUIT     15.69     0  02:07      0.06    0.02    0.63
  YSB1171HS02004479    CONDUIT     33.08     0  02:12      0.54    0.02    0.49
  HS02004881HS02006253 CONDUIT     55.46     0  02:12      1.91    0.01    0.51
  YS02001793JiankangQianchi CONDUIT    733.28     0  02:40     15.14    0.06    1.00
  YS02001757CaochengTiaoxuchi CONDUIT    837.88     0  02:50      1.56    0.37    1.00
  WSF200WS02003060     CONDUIT    546.59     0  03:59      2.19    0.12    0.34
  1                    CONDUIT    946.22     0  05:01      3.28    0.33    0.40
  CC-Pump-1            PUMP       200.00     0  03:40              1.00
  CC-Pump-2            PUMP       200.00     0  04:40              1.00
  JK-Pump-1            PUMP       300.00     0  02:30              1.00
  JK-Pump-2            PUMP       683.00     0  02:40              1.00
  XR-Pump-1            PUMP        95.00     0  00:00              1.00
  XR-Pump-2            PUMP        95.00     0  00:00              1.00
  XR-Pump-3            PUMP        95.00     0  00:00              1.00
  XR-Pump-4            PUMP        95.00     0  00:00              1.00
  
  
  ***************************
  Flow Classification Summary
  ***************************
  
  -------------------------------------------------------------------------------------
                      Adjusted    ---------- Fraction of Time in Flow Class ---------- 
                       /Actual         Up    Down  Sub   Sup   Up    Down  Norm  Inlet 
  Conduit               Length    Dry  Dry   Dry   Crit  Crit  Crit  Crit  Ltd   Ctrl  
  -------------------------------------------------------------------------------------
  WS02003066WSF200        1.00   0.00  0.02  0.00  0.00  0.97  0.00  0.00  0.78  0.00
  WS02006287WS02006284    1.00   0.03  0.02  0.00  0.80  0.15  0.00  0.00  0.76  0.00
  WS02006284WS02006280    1.00   0.04  0.00  0.00  0.00  0.00  0.00  0.96  0.00  0.00
  WS02006280WS02006229    1.00   0.04  0.00  0.00  0.00  0.00  0.00  0.96  0.00  0.00
  WS02006229WS02006228    1.00   0.00  0.00  0.00  1.00  0.00  0.00  0.00  0.00  0.00
  WS02006256WS02006235    1.00   0.00  0.00  0.00  0.99  0.00  0.00  0.00  0.00  0.00
  WS02006253WS02006251    1.00   0.01  0.02  0.00  0.96  0.00  0.00  0.00  0.00  0.00
  WS02006252WS02006251    1.00   0.18  0.00  0.00  0.04  0.00  0.78  0.00  0.00  0.00
  WS02006251WS02006249    1.00   0.00  0.00  0.00  1.00  0.00  0.00  0.00  0.31  0.00
  WS02006249WS02006248    1.00   0.00  0.00  0.00  0.90  0.00  0.10  0.00  0.00  0.00
  WS02006248WS02006247    1.00   0.00  0.00  0.00  0.99  0.00  0.00  0.01  0.20  0.00
  WS02006247WS02006245    1.00   0.01  0.00  0.00  0.99  0.00  0.00  0.01  0.00  0.00
  WS02006245WS02006243    1.00   0.01  0.00  0.00  0.95  0.00  0.00  0.05  0.02  0.00
  WS02006243WS02006242    1.00   0.01  0.00  0.00  0.99  0.00  0.00  0.00  0.27  0.00
  WS02006242WS02006240    1.00   0.01  0.00  0.00  0.99  0.00  0.00  0.00  0.00  0.00
  WS02006240WS02006239    1.00   0.01  0.00  0.00  0.94  0.00  0.00  0.05  0.01  0.00
  WS02006239WS02006238    1.00   0.01  0.00  0.00  0.99  0.00  0.00  0.00  0.15  0.00
  WS02006238WS02006235    1.00   0.01  0.00  0.00  0.99  0.00  0.00  0.00  0.00  0.00
  WS02006235WS02006234    1.00   0.01  0.00  0.00  0.95  0.00  0.04  0.00  0.00  0.00
  WS02006234WS02006232    1.00   0.01  0.00  0.00  0.99  0.00  0.00  0.00  0.11  0.00
  WS02006232WS02006231    1.00   0.01  0.00  0.00  0.99  0.00  0.00  0.00  0.00  0.00
  WS02006231WS02006230    1.00   0.01  0.00  0.00  0.61  0.00  0.39  0.00  0.00  0.00
  WS02006230WS02006229    1.00   0.00  0.00  0.00  0.99  0.00  0.00  0.01  0.00  0.00
  WS02006228WS02006109    1.00   0.00  0.00  0.00  1.00  0.00  0.00  0.00  0.00  0.00
  WS02006116WS02004401    1.00   0.01  0.00  0.00  0.99  0.00  0.00  0.00  0.00  0.00
  WS02006115WS02006116    1.00   0.01  0.00  0.00  0.98  0.00  0.00  0.00  0.00  0.00
  WS02006113WS02006111    1.00   0.01  0.00  0.00  0.00  0.99  0.00  0.00  0.18  0.00
  WS02006112WS02006115    1.00   0.01  0.00  0.00  0.99  0.00  0.00  0.00  0.00  0.00
  WS02006111WS02006112    1.00   0.01  0.00  0.00  0.99  0.00  0.00  0.00  0.95  0.00
  WS02006110WS02006113    1.00   0.00  0.01  0.00  0.99  0.00  0.00  0.00  0.00  0.00
  WS02006109WS02006110    1.00   0.00  0.00  0.00  0.99  0.00  0.00  0.00  0.00  0.00
  WS02004411WS02004412    1.00   0.02  0.00  0.00  0.98  0.00  0.00  0.00  0.00  0.00
  WS02004401WS02004402    1.00   0.01  0.00  0.00  0.99  0.00  0.00  0.00  0.00  0.00
  WS02004413WS02003067    1.00   0.02  0.00  0.00  0.00  0.00  0.97  0.00  0.00  0.00
  WS02004412WS02004413    1.00   0.02  0.00  0.00  0.98  0.00  0.00  0.00  0.00  0.00
  WS02004410WS02004411    1.00   0.02  0.00  0.00  0.98  0.00  0.00  0.00  0.00  0.00
  WS02004409WS02004410    1.00   0.02  0.00  0.00  0.98  0.00  0.00  0.00  0.00  0.00
  WS02004407WS02004409    1.00   0.02  0.00  0.00  0.98  0.00  0.00  0.00  0.93  0.00
  WS02004406WS02004407    1.00   0.00  0.02  0.00  0.98  0.00  0.00  0.00  0.00  0.00
  WS02004405WS02004406    1.00   0.00  0.00  0.00  1.00  0.00  0.00  0.00  0.02  0.00
  WS02004404WS02004405    1.00   0.00  0.00  0.00  1.00  0.00  0.00  0.00  0.00  0.00
  WS02004403WS02004404    1.00   0.00  0.02  0.00  0.98  0.00  0.00  0.00  0.00  0.00
  WS02004402WS02004403    1.00   0.01  0.00  0.00  0.99  0.00  0.00  0.00  0.00  0.00
  WS02004139WS02001211    1.00   0.00  0.00  0.00  1.00  0.00  0.00  0.00  0.00  0.00
  WS02004138WS02004139    1.00   0.00  0.00  0.00  1.00  0.00  0.00  0.00  1.00  0.00
  WS02003067WS02003066    1.00   0.03  0.00  0.00  0.97  0.00  0.00  0.00  0.00  0.00
  WS02001213WS02003059    1.00   0.00  0.00  0.00  1.00  0.00  0.00  0.00  0.00  0.00
  WS02001212WS02001213    1.00   0.00  0.00  0.00  0.92  0.00  0.08  0.00  0.00  0.00
  WS02001211WS02001212    1.00   0.00  0.00  0.00  1.00  0.00  0.00  0.00  0.00  0.00
  WS02003072WS02003073    1.00   0.00  0.00  0.00  0.00  0.00  0.00  1.00  0.00  0.00
  WS02003069WS02003072    1.00   0.00  0.00  0.00  1.00  0.00  0.00  0.00  0.22  0.00
  WS02003060WS02003069    1.00   0.00  0.00  0.00  0.99  0.01  0.00  0.00  0.18  0.00
  WS02003059WS02003060    1.00   0.00  0.00  0.00  1.00  0.00  0.00  0.00  0.00  0.00
  HS02004901HS02004770    1.00   0.04  0.00  0.00  0.96  0.00  0.00  0.00  0.01  0.00
  HS02004876HS02004881    1.00   0.00  0.00  0.00  1.00  0.00  0.00  0.00  0.00  0.00
  HS02004870HS02004876    1.00   0.00  0.00  0.00  1.00  0.00  0.00  0.00  0.95  0.00
  HS02004842HS02004848    1.00   0.00  0.04  0.00  0.96  0.00  0.00  0.00  0.65  0.00
  HS02004837HS02004842    1.00   0.00  0.00  0.00  1.00  0.00  0.00  0.00  0.11  0.00
  HS02004830HS02004837    1.00   0.00  0.00  0.00  1.00  0.00  0.00  0.00  0.99  0.00
  HS02004824HS02004830    1.00   0.00  0.00  0.00  1.00  0.00  0.00  0.00  0.00  0.00
  HS02004817HS02004824    1.00   0.00  0.00  0.00  1.00  0.00  0.00  0.00  1.00  0.00
  HS02004770HS02004777    1.00   0.00  0.04  0.00  0.96  0.00  0.00  0.00  0.05  0.00
  HS02004799HS02004480    1.00   0.00  0.01  0.00  0.95  0.00  0.04  0.00  0.00  0.00
  HS02004792HS02004799    1.00   0.00  0.00  0.00  1.00  0.00  0.00  0.00  0.98  0.00
  HS02004788HS02004792    1.00   0.00  0.00  0.00  1.00  0.00  0.00  0.00  0.98  0.00
  HS02004785HS02004788    1.00   0.00  0.00  0.00  1.00  0.00  0.00  0.00  0.00  0.00
  HS02004777HS02004785    1.00   0.00  0.00  0.00  1.00  0.00  0.00  0.00  0.17  0.00
  HS02004480HS02004478    1.00   0.04  0.00  0.00  0.84  0.00  0.00  0.12  0.00  0.00
  HS02004479HS02004480    1.00   0.01  0.00  0.00  0.99  0.00  0.00  0.00  0.15  0.00
  HS02004862HS02004870    1.00   0.00  0.00  0.00  1.00  0.00  0.00  0.00  0.05  0.00
  HS02004848HS02004852    1.00   0.04  0.00  0.00  0.96  0.00  0.00  0.00  0.72  0.00
  HS02004856HS02004862    1.00   0.00  0.06  0.00  0.94  0.00  0.00  0.00  0.77  0.00
  HS02004852HS02004856    1.00   0.04  0.01  0.00  0.96  0.00  0.00  0.00  0.84  0.00
  HS02004802HS02004478    1.00   0.04  0.00  0.00  0.96  0.00  0.00  0.00  0.01  0.00
  HS02004478WS02006287    1.00   0.05  0.00  0.00  0.90  0.06  0.00  0.00  0.74  0.00
  HS02004817HS02004807    1.00   0.00  0.04  0.00  0.96  0.00  0.00  0.00  0.00  0.00
  HS02004807HS02004802    1.00   0.04  0.00  0.00  0.96  0.00  0.00  0.00  0.01  0.00
  YS02001759YS02001757    1.00   0.00  0.00  0.00  1.00  0.00  0.00  0.00  0.18  0.00
  YS02001762YS02001759    1.00   0.00  0.00  0.00  1.00  0.00  0.00  0.00  0.04  0.00
  YS02001765YS02001762    1.00   0.00  0.00  0.00  1.00  0.00  0.00  0.00  0.20  0.00
  YS02001770YS02001767    1.00   0.00  0.00  0.00  1.00  0.00  0.00  0.00  0.00  0.00
  YS02001774YS02001770    1.00   0.00  0.04  0.00  0.96  0.00  0.00  0.00  0.05  0.00
  YS02001779YS02001774    1.00   0.00  0.00  0.00  1.00  0.00  0.00  0.00  0.24  0.00
  YS02001649YS02001757    1.00   0.00  0.00  0.00  1.00  0.00  0.00  0.00  0.18  0.00
  YS02001767YS02001765    1.00   0.00  0.00  0.00  1.00  0.00  0.00  0.00  0.01  0.00
  YS02006561YS02001783    1.00   0.06  0.00  0.00  0.04  0.90  0.00  0.00  0.64  0.00
  YS02001783YS02001784    1.00   0.00  0.06  0.00  0.94  0.00  0.00  0.00  0.01  0.00
  YS02001784YS02001785    1.00   0.00  0.00  0.00  1.00  0.00  0.00  0.00  0.23  0.00
  YS02001788YS02001790    1.00   0.00  0.00  0.00  0.13  0.87  0.00  0.00  0.66  0.00
  YS02001790YS02001791    1.00   0.00  0.00  0.00  0.08  0.92  0.00  0.00  0.55  0.00
  YS02001791YS02001793    1.00   0.00  0.00  0.00  0.12  0.88  0.00  0.00  0.05  0.00
  YS02001910YS02001907    1.00   0.00  0.00  0.00  0.99  0.00  0.00  0.01  0.13  0.00
  YS02001786YS02001788    1.00   0.00  0.00  0.00  0.12  0.88  0.00  0.00  0.00  0.00
  YS02001915YS02001910    1.00   0.00  0.00  0.00  1.00  0.00  0.00  0.00  0.21  0.00
  YS02001918YS02001915    1.00   0.00  0.00  0.00  0.99  0.00  0.00  0.00  0.69  0.00
  YS02001923YS02001920    1.00   0.00  0.00  0.00  1.00  0.00  0.00  0.00  1.00  0.00
  YS02001926YS02001923    1.00   0.00  0.02  0.00  0.00  0.00  0.98  0.00  0.00  0.00
  YS02001929YS02001926    1.00   0.00  0.04  0.00  0.96  0.00  0.00  0.00  0.87  0.00
  YS02001920YS02001918    1.00   0.00  0.00  0.00  1.00  0.00  0.00  0.00  0.00  0.00
  YS02001629YS02163301    1.00   0.05  0.00  0.00  0.95  0.00  0.00  0.00  0.00  0.00
  YS02001619YS02001622    1.00   0.04  0.00  0.00  0.96  0.00  0.00  0.00  0.00  0.00
  YS02001622YS02001625    1.00   0.04  0.00  0.00  0.96  0.00  0.00  0.00  0.10  0.00
  YS02001625YS02001629    1.00   0.04  0.03  0.00  0.92  0.00  0.01  0.00  0.00  0.00
  YS02163301YS02001633    1.00   0.00  0.05  0.00  0.95  0.00  0.00  0.00  0.00  0.00
  YS02163601YS02164001    1.00   0.00  0.02  0.00  0.98  0.00  0.00  0.00  0.00  0.00
  YS02164001YS02001641    1.00   0.00  0.02  0.00  0.98  0.00  0.00  0.00  0.07  0.00
  YS02001641YS02001644    1.00   0.00  0.00  0.00  1.00  0.00  0.00  0.00  0.00  0.00
  YS02001647YS02001649    1.00   0.00  0.06  0.00  0.94  0.00  0.00  0.00  0.01  0.00
  YS02006553YS02006556    1.00   0.00  0.00  0.00  1.00  0.00  0.00  0.00  0.03  0.00
  YS02006556YS02006558    1.00   0.00  0.00  0.00  1.00  0.00  0.00  0.00  0.00  0.00
  YSB6556YSB1171          1.00   0.01  0.02  0.00  0.97  0.00  0.00  0.00  0.00  0.00
  YS02001907YS02006553    1.00   0.00  0.00  0.00  0.99  0.00  0.00  0.00  0.00  0.00
  YS02006558YS02006561    1.00   0.06  0.00  0.00  0.00  0.94  0.00  0.00  0.67  0.00
  YS02001633YS02163601    1.00   0.00  0.00  0.00  1.00  0.00  0.00  0.00  0.18  0.00
  YS02001644YS02001647    1.00   0.00  0.06  0.00  0.94  0.00  0.00  0.00  0.00  0.00
  YS02001745YS02001748    1.00   0.00  0.00  0.00  0.91  0.00  0.00  0.09  0.06  0.00
  YS02001748YS02001751    1.00   0.00  0.00  0.00  0.97  0.03  0.00  0.00  0.17  0.00
  YS02001751YS02001754    1.00   0.00  0.00  0.00  0.93  0.00  0.00  0.07  0.02  0.00
  YS02001754YS02001757    1.00   0.00  0.00  0.00  1.00  0.00  0.00  0.00  0.24  0.00
  YS02001882YS02001884    1.00   0.05  0.00  0.00  0.95  0.00  0.00  0.00  0.00  0.00
  YS02001884YS02001887    1.00   0.02  0.01  0.00  0.97  0.00  0.00  0.00  0.00  0.00
  YS02001890YS02001895    1.00   0.00  0.05  0.00  0.95  0.00  0.00  0.00  0.00  0.00
  YS02001895YS02001898    1.00   0.05  0.00  0.00  0.93  0.00  0.01  0.00  0.00  0.00
  YS02001898YS02001901    1.00   0.05  0.00  0.00  0.94  0.00  0.00  0.00  0.02  0.00
  YS02001901YS02001904    1.00   0.05  0.00  0.00  0.95  0.00  0.00  0.00  0.00  0.00
  YS02001904YS02001907    1.00   0.00  0.05  0.00  0.95  0.00  0.00  0.00  0.00  0.00
  YS02001887YS02001890    1.00   0.00  0.00  0.00  0.99  0.00  0.01  0.00  0.00  0.00
  YS02001652YS02001649    1.00   0.00  0.00  0.00  1.00  0.00  0.00  0.00  0.22  0.00
  YS02001655YS02001652    1.00   0.00  0.00  0.00  0.93  0.00  0.00  0.07  0.02  0.00
  YS02001658YS02001655    1.00   0.00  0.05  0.00  0.92  0.03  0.00  0.00  0.08  0.00
  YS02001661YS02001658    1.00   0.04  0.00  0.00  0.91  0.05  0.00  0.00  0.06  0.00
  YS02001664YS02001661    1.00   0.04  0.00  0.00  0.91  0.05  0.00  0.00  0.29  0.00
  YSB1154YSB6556          1.00   0.03  0.00  0.00  0.97  0.00  0.00  0.00  0.02  0.00
  YSB1174YSB1171          1.00   0.01  0.01  0.00  0.97  0.00  0.00  0.00  0.00  0.00
  YSB1171HS02004479       1.00   0.01  0.00  0.00  0.98  0.00  0.00  0.00  0.13  0.00
  HS02004881HS02006253    1.00   0.02  0.00  0.00  0.80  0.00  0.00  0.18  0.54  0.00
  YS02001793JiankangQianchi    1.00   0.00  0.00  0.00  0.58  0.41  0.00  0.00  0.56  0.00
  YS02001757CaochengTiaoxuchi    1.00   0.00  0.08  0.00  0.92  0.00  0.00  0.00  0.00  0.00
  WSF200WS02003060        1.00   0.00  0.00  0.00  0.85  0.15  0.00  0.00  0.45  0.00
  1                       1.00   0.00  0.00  0.00  0.00  1.00  0.00  0.00  0.55  0.00
  
  
  *************************
  Conduit Surcharge Summary
  *************************
  
  ----------------------------------------------------------------------------
                                                           Hours        Hours 
                         --------- Hours Full --------   Above Full   Capacity
  Conduit                Both Ends  Upstream  Dnstream   Normal Flow   Limited
  ----------------------------------------------------------------------------
  WS02006229WS02006228        2.52      2.60      2.52      3.97         2.52
  WS02006256WS02006235        5.52      5.52      6.51      3.34         0.01
  WS02006253WS02006251        0.92      0.92      0.95      0.01         0.01
  WS02006252WS02006251        0.99      0.99      1.86      1.61         0.01
  WS02006251WS02006249        0.93      0.93      0.99      0.72         0.36
  WS02006249WS02006248        0.95      0.95      0.99      4.16         0.01
  WS02006248WS02006247        0.98      0.98      1.10      0.01         0.01
  WS02006247WS02006245        1.08      1.13      1.08      4.20         1.08
  WS02006245WS02006243        1.12      1.12      1.24      0.33         0.17
  WS02006243WS02006242        1.31      1.31      1.97      0.01         0.01
  WS02006242WS02006240        1.85      1.85      2.20      2.05         0.01
  WS02006240WS02006239        1.88      1.88      1.92      0.91         0.47
  WS02006239WS02006238        2.02      2.02      2.05      0.98         0.56
  WS02006238WS02006235        2.04      2.04      2.08      0.01         0.01
  WS02006235WS02006234        1.89      1.89      2.02      5.47         0.01
  WS02006234WS02006232        1.97      1.97      2.09      0.73         0.70
  WS02006232WS02006231        0.93      0.93      2.09      0.86         0.01
  WS02006231WS02006230        0.57      0.57      0.98      5.57         0.01
  WS02006230WS02006229        3.26      3.59      3.26      5.87         3.26
  WS02006228WS02006109        2.56      2.82      2.56      5.05         2.56
  WS02006112WS02006115        0.01      0.01      0.88      0.01         0.01
  WS02006111WS02006112        0.01      0.01      4.15      0.01         0.01
  WS02006110WS02006113        0.01      0.01      2.69      0.01         0.01
  WS02006109WS02006110        0.69      0.69      2.82      0.70         0.01
  WS02004405WS02004406        0.01      0.01      0.01      0.74         0.01
  WS02004404WS02004405        0.01      0.01      0.01      5.81         0.01
  WS02003072WS02003073        0.01      0.01      0.01      4.93         0.01
  YS02001759YS02001757        5.52      5.52      5.58      0.01         0.01
  YS02001762YS02001759        5.50      5.50      5.52      0.01         0.01
  YS02001765YS02001762        5.47      5.47      5.50      0.01         0.01
  YS02001770YS02001767        5.44      5.44      5.45      0.01         0.63
  YS02001774YS02001770        5.43      5.43      5.48      0.01         0.01
  YS02001779YS02001774        5.04      5.04      5.48      0.01         0.01
  YS02001649YS02001757        5.50      5.50      5.58      0.01         0.01
  YS02001767YS02001765        5.45      5.45      5.47      0.01         0.01
  YS02001784YS02001785        0.01      0.01      0.01      0.71         0.01
  YS02001788YS02001790        0.01      0.01      0.56      0.01         0.01
  YS02001790YS02001791        0.56      0.56      0.67      0.01         0.01
  YS02001791YS02001793        0.67      0.67      0.96      0.01         0.01
  YS02001786YS02001788        0.01      0.01      0.01      0.04         0.01
  YS02001629YS02163301        5.42      5.42      5.44      0.01         0.01
  YS02001619YS02001622        4.70      4.70      4.74      0.01         0.01
  YS02001622YS02001625        4.74      4.74      5.37      0.01         0.01
  YS02001625YS02001629        4.70      4.70      5.37      0.01         0.01
  YS02163301YS02001633        5.44      5.44      5.48      0.01         0.01
  YS02163601YS02164001        5.47      5.47      5.50      0.01         0.01
  YS02164001YS02001641        5.47      5.47      5.48      0.01         0.01
  YS02001641YS02001644        5.48      5.48      5.48      0.01         0.82
  YS02001647YS02001649        5.32      5.32      5.50      0.01         0.01
  YS02001907YS02006553        0.81      0.81      1.05      0.01         0.01
  YS02006558YS02006561        0.01      0.01      0.01      0.46         0.01
  YS02001633YS02163601        5.46      5.46      5.50      0.01         0.01
  YS02001644YS02001647        5.32      5.32      5.48      0.01         0.01
  YS02001745YS02001748        0.01      0.01      3.42      0.01         0.01
  YS02001748YS02001751        4.05      4.05      4.75      0.01         0.01
  YS02001751YS02001754        4.75      4.75      5.15      0.01         0.01
  YS02001754YS02001757        5.30      5.30      5.58      0.01         0.01
  YS02001652YS02001649        5.34      5.34      5.50      0.01         0.01
  YS02001655YS02001652        4.80      4.80      5.28      0.01         0.01
  YS02001658YS02001655        3.56      3.56      4.80      0.01         0.01
  YS02001661YS02001658        0.01      0.01      3.57      0.01         0.01
  YS02001664YS02001661        0.01      0.01      0.30      0.01         0.01
  HS02004881HS02006253        0.01      0.01      0.54      0.01         0.01
  YS02001793JiankangQianchi        0.89      0.89      3.51      0.01         0.01
  YS02001757CaochengTiaoxuchi        4.51      4.51      5.58      0.01         0.01
  
  
  ***************
  Pumping Summary
  ***************
  
  ---------------------------------------------------------------------------------------------------------
                                                  Min       Avg       Max     Total     Power    % Time Off
                        Percent   Number of      Flow      Flow      Flow    Volume     Usage    Pump Curve
  Pump                 Utilized   Start-Ups       LPS       LPS       LPS  10^6 ltr     Kw-hr    Low   High
  ---------------------------------------------------------------------------------------------------------
  CC-Pump-1               55.32           1      0.00    197.48    200.00     3.060      3.58    0.0    0.0
  CC-Pump-2               29.79           5      0.00     88.77    200.00     0.960      1.42    0.0    0.0
  JK-Pump-1               48.92           5      0.00    163.87    300.00     2.423     41.85    0.0    0.0
  JK-Pump-2               36.16           4      0.00    223.33    683.00     2.717     47.93    0.0   96.6
  XR-Pump-1               91.49           3      0.00     89.80     95.00     2.337     43.13    0.0    0.0
  XR-Pump-2               91.49           3      0.00     89.17     95.00     2.280     41.90    0.0    0.0
  XR-Pump-3               78.73           4      0.00     88.52     95.00     1.938     34.03    0.0    0.0
  XR-Pump-4               78.73           4      0.00     88.52     95.00     1.938     34.03    0.0    0.0
  
  
  ***************************
  Link Pollutant Load Summary
  ***************************
  
  ------------------------------------------------------------------------------------------
                                 COD            SS            TN            TP         NH4-N
  Link                            kg            kg            kg            kg            kg
  ------------------------------------------------------------------------------------------
  WS02003066WSF200           485.871       840.894        15.523         1.468         8.491
  WS02006287WS02006284       138.123       243.281         6.855         0.766         4.033
  WS02006284WS02006280       138.547       243.966         6.895         0.771         4.058
  WS02006280WS02006229       138.532       243.938         6.895         0.771         4.057
  WS02006229WS02006228       494.474       855.112        15.296         1.421         8.305
  WS02006256WS02006235        90.099       154.895         2.396         0.205         1.266
  WS02006253WS02006251        23.938        43.853         0.652         0.055         0.341
  WS02006252WS02006251       261.219       444.978         5.804         0.423         2.866
  WS02006251WS02006249       279.484       479.214         6.339         0.470         3.151
  WS02006249WS02006248       272.788       467.775         6.185         0.459         3.075
  WS02006248WS02006247       272.638       467.547         6.186         0.459         3.076
  WS02006247WS02006245       272.244       466.895         6.175         0.458         3.070
  WS02006245WS02006243       272.067       466.675         6.168         0.458         3.066
  WS02006243WS02006242       272.524       467.566         6.178         0.458         3.071
  WS02006242WS02006240       272.862       468.258         6.183         0.459         3.073
  WS02006240WS02006239       273.537       469.532         6.192         0.459         3.078
  WS02006239WS02006238       275.054       472.245         6.231         0.463         3.098
  WS02006238WS02006235       275.573       473.045         6.246         0.464         3.107
  WS02006235WS02006234       359.539       617.181         8.497         0.658         4.298
  WS02006234WS02006232       359.066       616.396         8.490         0.658         4.295
  WS02006232WS02006231       358.349       615.193         8.469         0.656         4.283
  WS02006231WS02006230       357.812       614.293         8.457         0.655         4.278
  WS02006230WS02006229       357.307       613.515         8.452         0.655         4.276
  WS02006228WS02006109       493.558       853.612        15.270         1.419         8.292
  WS02006116WS02004401       498.712       862.344        15.896         1.500         8.689
  WS02006115WS02006116       499.935       864.364        15.936         1.504         8.711
  WS02006113WS02006111       499.230       862.555        15.972         1.509         8.737
  WS02006112WS02006115       501.155       866.410        15.984         1.509         8.738
  WS02006111WS02006112       498.660       861.599        15.956         1.508         8.728
  WS02006110WS02006113       499.797       863.503        15.995         1.511         8.750
  WS02006109WS02006110       501.152       865.758        16.059         1.518         8.787
  WS02004411WS02004412       489.499       846.991        15.656         1.481         8.565
  WS02004401WS02004402       497.426       860.196        15.847         1.496         8.662
  WS02004413WS02003067       486.580       842.062        15.544         1.470         8.502
  WS02004412WS02004413       488.117       844.680        15.608         1.477         8.539
  WS02004410WS02004411       490.565       848.762        15.691         1.484         8.584
  WS02004409WS02004410       491.610       850.506        15.728         1.488         8.605
  WS02004407WS02004409       492.443       851.877        15.754         1.490         8.619
  WS02004406WS02004407       492.641       852.172        15.756         1.490         8.620
  WS02004405WS02004406       494.340       854.997        15.830         1.498         8.662
  WS02004404WS02004405       495.506       856.928        15.846         1.498         8.668
  WS02004403WS02004404       495.123       856.363        15.764         1.488         8.615
  WS02004402WS02004403       496.228       858.212        15.806         1.492         8.639
  WS02004139WS02001211      1442.692      2319.223       132.928        16.511        82.767
  WS02004138WS02004139      1447.305      2326.647       133.343        16.562        83.025
  WS02003067WS02003066       486.047       841.194        15.529         1.469         8.494
  WS02001213WS02003059      1475.259      2371.342       136.034        16.899        84.708
  WS02001212WS02001213      1485.948      2388.425       137.084        17.030        85.365
  WS02001211WS02001212      1486.796      2389.768       137.175        17.042        85.423
  WS02003072WS02003073      2052.731      3358.368       160.676        19.512        98.912
  WS02003069WS02003072      2057.767      3366.625       161.070        19.560        99.155
  WS02003060WS02003069      2061.190      3372.183       161.332        19.591        99.316
  WS02003059WS02003060      1470.847      2364.410       135.506        16.831        84.375
  HS02004901HS02004770         3.972         7.335         0.076         0.006         0.035
  HS02004876HS02004881        15.357        28.747         0.408         0.034         0.211
  HS02004870HS02004876        11.729        21.841         0.347         0.030         0.183
  HS02004842HS02004848         2.151         3.859         0.047         0.003         0.021
  HS02004837HS02004842         6.768        11.205         0.515         0.062         0.315
  HS02004830HS02004837        51.956        85.645         4.296         0.527         2.660
  HS02004824HS02004830        52.706        86.847         4.368         0.536         2.705
  HS02004817HS02004824        61.233       102.781         4.571         0.551         2.807
  HS02004770HS02004777        15.263        28.438         0.325         0.021         0.148
  HS02004799HS02004480        59.597       106.311         2.278         0.235         1.276
  HS02004792HS02004799        54.884        96.999         2.238         0.236         1.266
  HS02004788HS02004792        34.483        60.682         1.701         0.187         0.989
  HS02004785HS02004788        16.761        30.847         0.478         0.041         0.244
  HS02004777HS02004785        16.217        29.966         0.429         0.035         0.214
  HS02004480HS02004478        73.053       132.042         2.462         0.245         1.355
  HS02004479HS02004480        17.717        32.516         0.589         0.061         0.332
  HS02004862HS02004870         8.743        15.939         0.288         0.027         0.155
  HS02004848HS02004852         2.772         5.035         0.060         0.004         0.027
  HS02004856HS02004862         5.230         9.843         0.107         0.007         0.050
  HS02004852HS02004856         2.768         5.027         0.059         0.004         0.027
  HS02004802HS02004478        65.380       111.749         4.421         0.524         2.694
  HS02004478WS02006287       138.304       243.581         6.870         0.768         4.042
  HS02004817HS02004807        59.869       100.599         4.442         0.535         2.726
  HS02004807HS02004802        66.014       112.758         4.483         0.532         2.733
  YS02001759YS02001757       160.499       275.403         3.524         0.247         1.750
  YS02001762YS02001759        84.502       146.082         2.040         0.149         1.034
  YS02001765YS02001762        83.899       144.954         2.051         0.151         1.043
  YS02001770YS02001767        81.462       140.988         1.752         0.112         0.853
  YS02001774YS02001770         4.828         8.298         0.120         0.009         0.061
  YS02001779YS02001774         3.435         5.745         0.166         0.018         0.097
  YS02001649YS02001757       210.831       350.772         4.539         0.332         2.193
  YS02001767YS02001765        83.880       144.862         2.064         0.152         1.051
  YS02006561YS02001783       330.657       563.234         8.508         0.707         4.445
  YS02001783YS02001784       330.576       563.114         8.504         0.707         4.443
  YS02001784YS02001785       337.951       574.931         9.218         0.796         4.889
  YS02001788YS02001790       338.628       576.035         9.292         0.805         4.936
  YS02001790YS02001791       339.749       577.854         9.395         0.818         5.000
  YS02001791YS02001793       339.757       577.875         9.392         0.818         4.998
  YS02001910YS02001907       112.824       188.600         4.012         0.374         2.225
  YS02001786YS02001788       338.190       575.326         9.247         0.800         4.908
  YS02001915YS02001910       112.735       188.416         3.965         0.367         2.194
  YS02001918YS02001915        57.315        91.879         2.735         0.299         1.606
  YS02001923YS02001920        37.324        59.909         0.791         0.056         0.389
  YS02001926YS02001923        36.962        59.327         0.752         0.051         0.365
  YS02001929YS02001926        36.699        58.896         0.721         0.047         0.345
  YS02001920YS02001918        57.252        91.800         2.709         0.296         1.589
  YS02001629YS02163301        41.821        69.703         0.923         0.058         0.427
  YS02001619YS02001622        45.069        74.755         0.999         0.062         0.461
  YS02001622YS02001625        44.120        73.326         0.975         0.061         0.450
  YS02001625YS02001629        42.980        71.631         0.947         0.059         0.438
  YS02163301YS02001633        42.192        70.357         0.929         0.059         0.431
  YS02163601YS02164001       117.469       194.395         2.517         0.178         1.213
  YS02164001YS02001641       117.111       193.816         2.497         0.176         1.201
  YS02001641YS02001644       117.879       195.087         2.504         0.176         1.203
  YS02001647YS02001649       168.310       278.218         3.441         0.243         1.647
  YS02006553YS02006556       239.558       406.655         6.500         0.563         3.456
  YS02006556YS02006558       239.498       406.538         6.469         0.559         3.435
  YSB6556YSB1171               9.437        17.480         0.246         0.023         0.133
  YS02001907YS02006553       239.559       406.679         6.498         0.563         3.455
  YS02006558YS02006561       330.637       563.189         8.506         0.707         4.444
  YS02001633YS02163601       118.109       195.351         2.499         0.174         1.198
  YS02001644YS02001647       170.883       282.347         3.491         0.246         1.671
  YS02001745YS02001748        63.244       107.676         1.373         0.082         0.662
  YS02001748YS02001751        67.153       114.073         1.753         0.130         0.900
  YS02001751YS02001754        65.426       111.020         1.787         0.138         0.930
  YS02001754YS02001757        66.355       112.490         1.956         0.161         1.039
  YS02001882YS02001884         0.797         1.288         0.021         0.002         0.011
  YS02001884YS02001887         3.003         5.045         0.071         0.006         0.037
  YS02001890YS02001895       127.918       219.798         2.515         0.192         1.245
  YS02001895YS02001898       127.775       219.593         2.509         0.191         1.241
  YS02001898YS02001901       127.650       219.413         2.506         0.191         1.240
  YS02001901YS02001904       127.673       219.484         2.524         0.193         1.252
  YS02001904YS02001907       128.329       220.574         2.608         0.204         1.305
  YS02001887YS02001890       128.771       221.114         2.577         0.199         1.283
  YS02001652YS02001649        47.030        79.801         1.185         0.095         0.585
  YS02001655YS02001652        47.582        80.697         1.201         0.096         0.593
  YS02001658YS02001655        45.827        77.933         0.971         0.067         0.446
  YS02001661YS02001658        50.022        85.039         1.054         0.072         0.482
  YS02001664YS02001661        61.516       103.030         1.321         0.089         0.603
  YSB1154YSB6556               8.947        16.699         0.186         0.016         0.095
  YSB1174YSB1171               6.427        12.057         0.166         0.015         0.089
  YSB1171HS02004479           17.630        32.387         0.580         0.060         0.327
  HS02004881HS02006253        17.263        32.473         0.434         0.034         0.221
  YS02001793JiankangQianchi       340.374       578.898         9.404         0.818         5.004
  YS02001757CaochengTiaoxuchi       430.714       728.336         9.659         0.703         4.772
  WSF200WS02003060           485.858       840.935        15.529         1.469         8.494
  1                         2055.304      3362.729       160.945        19.546        99.082
  CC-Pump-1                  198.749       338.529         4.417         0.322         2.181
  CC-Pump-2                   62.494       106.487         1.387         0.101         0.685
  JK-Pump-1                  100.242       172.730         2.639         0.225         1.391
  JK-Pump-2                  129.691       221.723         3.386         0.286         1.778
  XR-Pump-1                  412.593       662.944        38.180         4.745        23.782
  XR-Pump-2                  398.656       640.645        36.842         4.578        22.946
  XR-Pump-3                  320.409       515.352        29.382         3.647        18.286
  XR-Pump-4                  320.409       515.352        29.382         3.647        18.286
  

  Analysis begun on:  Sun Jul 11 16:20:37 2021
  Analysis ended on:  Sun Jul 11 16:20:41 2021
  Total elapsed time: 00:00:04