
  EPA STORM WATER MANAGEMENT MODEL - VERSION 5.1 (Build 5.3.0.dev0)
  --------------------------------------------------------------

  WARNING 04: minimum elevation drop used for Conduit WS02004404WS02004405
  WARNING 03: negative offset ignored for Link YS02001904YS02001907
  
  *********************************************************
  NOTE: The summary statistics displayed in this report are
  based on results found at every computational time step,  
  not just on results from each reporting time step.
  *********************************************************
  
  ****************
  Analysis Options
  ****************
  Flow Units ............... LPS
  Process Models:
    Rainfall/Runoff ........ YES
    RDII ................... NO
    Snowmelt ............... NO
    Groundwater ............ NO
    Flow Routing ........... YES
    Ponding Allowed ........ NO
    Water Quality .......... YES
  Infiltration Method ...... HORTON
  Flow Routing Method ...... DYNWAVE
  Surcharge Method ......... EXTRAN
  Starting Date ............ 08/28/2015 08:00:00
  Ending Date .............. 08/28/2015 15:50:00
  Antecedent Dry Days ...... 8.0
  Report Time Step ......... 00:01:00
  Wet Time Step ............ 00:01:00
  Dry Time Step ............ 00:01:00
  Routing Time Step ........ 5.00 sec
  Variable Time Step ....... YES
  Maximum Trials ........... 8
  Number of Threads ........ 4
  Head Tolerance ........... 0.001500 m
  
  
  **************************        Volume         Depth
  Runoff Quantity Continuity     hectare-m            mm
  **************************     ---------       -------
  Total Precipitation ......         2.016         4.413
  Evaporation Loss .........         0.000         0.000
  Infiltration Loss ........         0.465         1.018
  Surface Runoff ...........         1.103         2.414
  Final Storage ............         0.448         0.982
  Continuity Error (%) .....        -0.023
  
  
  **************************           COD            SS            TN            TP         NH4-N
  Runoff Quality Continuity             kg            kg            kg            kg            kg
  **************************    ----------    ----------    ----------    ----------    ----------
  Initial Buildup ..........     41378.656     70582.865      1804.177       168.684      1032.807
  Surface Buildup ..........        13.943        15.962         3.160         0.292         1.874
  Wet Deposition ...........         0.000         0.000         0.000         0.000         0.000
  Sweeping Removal .........         0.000         0.000         0.000         0.000         0.000
  Infiltration Loss ........        18.120        30.768         0.371         0.024         0.173
  BMP Removal ..............         0.000         0.000         0.000         0.000         0.000
  Surface Runoff ...........       571.546       944.399        11.858         0.756         5.575
  Remaining Buildup ........     40802.753     69623.368      1795.104       168.195      1028.932
  Continuity Error (%) .....         0.000         0.000         0.000         0.000         0.000
  
  
  **************************        Volume        Volume
  Flow Routing Continuity        hectare-m      10^6 ltr
  **************************     ---------     ---------
  Dry Weather Inflow .......         0.616         6.165
  Wet Weather Inflow .......         1.102        11.022
  Groundwater Inflow .......         0.000         0.000
  RDII Inflow ..............         0.000         0.000
  External Inflow ..........         0.102         1.024
  External Outflow .........         1.305        13.052
  Flooding Loss ............         0.166         1.656
  Evaporation Loss .........         0.000         0.000
  Exfiltration Loss ........         0.000         0.000
  Initial Stored Volume ....         0.076         0.761
  Final Stored Volume ......         0.519         5.187
  Continuity Error (%) .....        -4.878
  
  
  **************************           COD            SS            TN            TP         NH4-N
  Quality Routing Continuity            kg            kg            kg            kg            kg
  **************************    ----------    ----------    ----------    ----------    ----------
  Dry Weather Inflow .......      1541.201      2465.922       147.955        18.494        92.472
  Wet Weather Inflow .......       571.349       944.102        11.853         0.756         5.573
  Groundwater Inflow .......         0.000         0.000         0.000         0.000         0.000
  RDII Inflow ..............         0.000         0.000         0.000         0.000         0.000
  External Inflow ..........       183.418       293.469        17.608         2.201        11.005
  External Outflow .........      1672.612      2701.948       140.574        17.243        86.999
  Flooding Loss ............        81.507       135.047         2.361         0.208         1.265
  Exfiltration Loss ........         0.000         0.000         0.000         0.000         0.000
  Mass Reacted .............         0.000         0.000         0.000         0.000         0.000
  Initial Stored Mass ......         0.000         0.000         0.000         0.000         0.000
  Final Stored Mass ........       423.410       676.634        26.683         3.088        16.061
  Continuity Error (%) .....         5.159         5.127         4.396         4.255         4.333
  
  
  *************************
  Highest Continuity Errors
  *************************
  Node YS02001774 (34.05%)
  Node HS02004842 (28.93%)
  Node JK-storage (-24.12%)
  Node YS02001884 (23.72%)
  Node YSB1171 (7.24%)
  
  
  ***************************
  Time-Step Critical Elements
  ***************************
  Link WS02006252WS02006251 (40.37%)
  Link WS02006280WS02006229 (14.13%)
  Link YS02001793JiankangQianchi (12.53%)
  Link WS02006238WS02006235 (6.79%)
  Link WS02004404WS02004405 (4.63%)
  
  
  ********************************
  Highest Flow Instability Indexes
  ********************************
  Link WS02006113WS02006111 (50)
  Link WS02006111WS02006112 (17)
  Link YS02001641YS02001644 (11)
  Link YS02164001YS02001641 (10)
  Link YS02001779YS02001774 (10)
  
  
  *************************
  Routing Time Step Summary
  *************************
  Minimum Time Step           :     0.48 sec
  Average Time Step           :     1.94 sec
  Maximum Time Step           :     5.00 sec
  Percent in Steady State     :    -0.00
  Average Iterations per Step :     2.76
  Percent Not Converging      :     5.69
  
  
  ***************************
  Subcatchment Runoff Summary
  ***************************
  
  ------------------------------------------------------------------------------------------------------------------------------
                            Total      Total      Total      Total     Imperv       Perv      Total       Total     Peak  Runoff
                           Precip      Runon       Evap      Infil     Runoff     Runoff     Runoff      Runoff   Runoff   Coeff
  Subcatchment                 mm         mm         mm         mm         mm         mm         mm    10^6 ltr      LPS
  ------------------------------------------------------------------------------------------------------------------------------
  sub0                       4.41       0.00       0.00       0.31       4.06       0.00       4.06        0.00     1.32   0.920
  sub1                       4.41       0.00       0.00       0.49       3.84       0.00       3.84        0.03     7.24   0.870
  sub2                       4.41       0.00       0.00       1.63       2.70       0.00       2.70        0.03     6.40   0.612
  sub3                       4.41       0.00       0.00       1.63       2.67       0.00       2.67        0.06    13.13   0.605
  sub4                       4.41       0.00       0.00       0.49       3.71       0.00       3.71        0.08    14.64   0.840
  sub5                       4.41       0.00       0.00       0.31       4.01       0.00       4.01        0.05    12.87   0.910
  sub7                       4.41       0.00       0.00       0.40       3.96       0.00       3.96        0.01     4.49   0.896
  sub8                       4.41       0.00       0.00       0.40       3.95       0.00       3.95        0.03     7.97   0.894
  sub9                       4.41       0.00       0.00       0.40       3.94       0.00       3.94        0.02     5.92   0.894
  sub10                      4.41       0.00       0.00       0.35       3.98       0.00       3.98        0.04    12.84   0.901
  sub11                      4.41       0.00       0.00       0.35       3.99       0.00       3.99        0.05    14.98   0.905
  sub12                      4.41       0.00       0.00       0.57       3.79       0.00       3.79        0.03    12.42   0.859
  sub14                      4.41       0.00       0.00       0.40       3.94       0.00       3.94        0.04    11.56   0.893
  sub15                      4.41       0.00       0.00       1.32       3.03       0.00       3.03        0.05    15.71   0.687
  sub16                      4.41       0.00       0.00       1.46       2.92       0.00       2.92        0.03    11.00   0.661
  sub17                      4.41       0.00       0.00       1.41       2.96       0.00       2.96        0.03     8.92   0.671
  sub22                      4.41       0.00       0.00       1.90       2.48       0.00       2.48        0.16    51.16   0.561
  sub23                      4.41       0.00       0.00       1.63       2.74       0.00       2.74        0.13    43.51   0.620
  sub60                      4.41       0.00       0.00       0.53       2.64       0.00       2.64        0.80    70.79   0.598
  sub61                      4.41       0.00       0.00       0.75       2.83       0.00       2.83        0.87    89.83   0.642
  sub62                      4.41       0.00       0.00       0.35       3.03       0.00       3.03        0.93    91.48   0.688
  sub63                      4.41       0.00       0.00       1.28       2.53       0.00       2.53        0.76    84.26   0.572
  sub64                      4.41       0.00       0.00       0.66       2.52       0.00       2.52        0.77    67.20   0.572
  sub65                      4.41       0.00       0.00       0.57       2.55       0.00       2.55        0.79    68.14   0.578
  sub66                      4.41       0.00       0.00       1.28       2.20       0.00       2.20        0.68    61.78   0.499
  sub67                      4.41       0.00       0.00       0.35       3.35       0.00       3.35        1.03   118.82   0.758
  sub68                      4.41       0.00       0.00       0.62       3.02       0.00       3.02        0.93    99.63   0.683
  sub69                      4.41       0.00       0.00       0.66       3.26       0.00       3.26        0.76   100.39   0.739
  sub70                      4.41       3.33       0.00       2.63       3.99       0.00       3.99        0.91    79.47   0.515
  sub71                      4.41       0.00       0.00       0.35       2.90       0.00       2.90        0.68    63.59   0.657
  sub72                      4.41       0.00       0.00       0.31       2.03       0.00       2.03        0.41    29.92   0.460
  1                          4.41       3.88       0.00       1.30       4.05       0.49       4.54        1.07    74.33   0.547
  2                          4.41       0.00       0.00       2.86       0.98       0.15       1.13        0.45    61.11   0.257
  
  
  ****************************
  Subcatchment Washoff Summary
  ****************************
  
  ------------------------------------------------------------------------------------------
                                 COD            SS            TN            TP         NH4-N
  Subcatchment                    kg            kg            kg            kg            kg
  ------------------------------------------------------------------------------------------
  sub0                         0.599         1.096         0.010         0.001         0.005
  sub1                         2.384         4.392         0.045         0.003         0.022
  sub2                         1.356         2.398         0.031         0.002         0.014
  sub3                         3.236         5.631         0.073         0.005         0.033
  sub4                         5.129         9.317         0.108         0.006         0.051
  sub5                         5.459         9.928         0.096         0.007         0.046
  sub7                         1.288         2.430         0.025         0.002         0.012
  sub8                         1.948         3.742         0.040         0.002         0.019
  sub9                         1.640         3.107         0.032         0.002         0.016
  sub10                        4.568         8.428         0.084         0.006         0.040
  sub11                        4.593         8.616         0.087         0.006         0.041
  sub12                        3.866         7.152         0.069         0.005         0.033
  sub14                        3.465         6.502         0.067         0.004         0.032
  sub15                        4.014         7.164         0.080         0.006         0.037
  sub16                        2.587         4.639         0.050         0.004         0.023
  sub17                        2.356         4.182         0.044         0.003         0.020
  sub22                       11.848        20.719         0.234         0.017         0.107
  sub23                        7.403        13.457         0.168         0.011         0.076
  sub60                       36.568        59.795         0.801         0.045         0.382
  sub61                       46.831        76.422         0.928         0.059         0.444
  sub62                       49.539        82.338         1.049         0.061         0.501
  sub63                       35.437        57.222         0.790         0.052         0.358
  sub64                       42.750        67.228         0.837         0.058         0.395
  sub65                       43.839        69.244         0.867         0.058         0.410
  sub66                       26.325        41.950         0.609         0.037         0.280
  sub67                       74.705       123.419         1.377         0.096         0.662
  sub68                       53.118        87.834         1.092         0.069         0.517
  sub69                       50.601        85.208         1.001         0.066         0.474
  sub70                       74.452       125.060         1.612         0.105         0.740
  sub71                       32.823        54.967         0.747         0.040         0.356
  sub72                       20.187        31.094         0.408         0.026         0.195
  1                           35.751        60.532         0.807         0.053         0.364
  2                            5.936         9.451         0.203         0.012         0.084
  ------------------------------------------------------------------------------------------
  System                     696.599      1154.667        14.471         0.928         6.788
  
  
  ******************
  Node Depth Summary
  ******************
  
  ---------------------------------------------------------------------------------
                                 Average  Maximum  Maximum  Time of Max    Reported
                                   Depth    Depth      HGL   Occurrence   Max Depth
  Node                 Type       Meters   Meters   Meters  days hr:min      Meters
  ---------------------------------------------------------------------------------
  WS02001211           JUNCTION     0.63     0.79     5.63     0  05:21        0.79
  WS02001212           JUNCTION     0.36     0.51     5.57     0  05:20        0.51
  WS02001213           JUNCTION     0.59     0.76     5.52     0  05:20        0.76
  WS02003069           JUNCTION     0.39     0.59     5.17     0  05:19        0.59
  WS02003072           JUNCTION     0.45     0.64     5.01     0  05:20        0.64
  WS02003073           JUNCTION     0.27     0.40     4.46     0  05:20        0.40
  WS02003060           JUNCTION     0.35     0.52     5.45     0  05:19        0.52
  WS02003066           JUNCTION     0.19     0.30     5.85     0  05:11        0.30
  WS02003059           JUNCTION     0.64     0.81     5.50     0  05:19        0.81
  WS02003067           JUNCTION     0.48     0.70     6.02     0  05:12        0.70
  WS02004401           JUNCTION     0.59     0.86     6.86     0  05:15        0.86
  WS02004402           JUNCTION     0.62     0.88     6.84     0  05:16        0.88
  WS02004403           JUNCTION     0.64     0.90     6.83     0  05:16        0.90
  WS02004404           JUNCTION     0.72     0.97     6.82     0  05:16        0.97
  WS02004406           JUNCTION     0.73     0.96     6.79     0  05:16        0.96
  WS02004409           JUNCTION     0.40     0.67     6.44     0  05:16        0.67
  WS02004410           JUNCTION     0.42     0.69     6.41     0  05:17        0.69
  WS02004411           JUNCTION     0.43     0.70     6.38     0  05:17        0.70
  WS02004412           JUNCTION     0.45     0.70     6.34     0  05:17        0.70
  WS02004413           JUNCTION     0.60     0.86     6.33     0  05:12        0.86
  WS02004405           JUNCTION     0.72     0.96     6.81     0  05:16        0.96
  WS02006109           JUNCTION     0.67     0.99     7.61     0  04:58        0.98
  WS02006110           JUNCTION     0.67     0.93     7.52     0  04:59        0.93
  WS02006111           JUNCTION     0.18     0.29     7.00     0  05:15        0.29
  WS02006112           JUNCTION     0.75     1.06     6.94     0  05:15        1.05
  WS02006113           JUNCTION     0.28     0.46     7.35     0  04:59        0.46
  WS02006115           JUNCTION     0.48     0.76     6.90     0  05:15        0.76
  WS02006116           JUNCTION     0.56     0.84     6.88     0  05:15        0.84
  WS02006230           JUNCTION     0.63     1.12     7.87     0  04:58        1.12
  WS02006231           JUNCTION     0.41     0.87     7.99     0  04:58        0.86
  WS02006232           JUNCTION     0.54     1.07     8.11     0  05:29        1.06
  WS02006234           JUNCTION     0.46     1.07     8.23     0  04:59        1.07
  WS02006235           JUNCTION     0.50     1.16     8.33     0  05:29        1.16
  WS02006238           JUNCTION     0.53     1.19     8.34     0  05:02        1.19
  WS02006240           JUNCTION     0.44     1.14     8.43     0  04:58        1.13
  WS02006242           JUNCTION     0.50     1.23     8.49     0  05:28        1.21
  WS02006243           JUNCTION     0.40     1.14     8.56     0  05:28        1.12
  WS02006245           JUNCTION     0.38     1.12     8.61     0  05:28        1.10
  WS02006247           JUNCTION     0.39     1.14     8.64     0  05:28        1.13
  WS02006248           JUNCTION     0.35     1.08     8.67     0  04:58        1.08
  WS02006249           JUNCTION     0.37     1.09     8.69     0  04:58        1.09
  WS02006239           JUNCTION     0.49     1.17     8.38     0  04:59        1.17
  WS02006251           JUNCTION     0.35     1.24     8.91     0  04:58        1.15
  WS02006252           JUNCTION     0.23     0.78     9.02     0  04:58        0.68
  WS02006253           JUNCTION     0.39     1.29     8.93     0  05:28        1.17
  WS02006256           JUNCTION     1.29     2.35     9.28     0  00:00        2.35
  WS02004138           JUNCTION     0.13     0.20     7.45     0  00:00        0.19
  WS02004139           JUNCTION     0.58     0.74     5.65     0  05:22        0.74
  WS02004407           JUNCTION     0.18     0.30     6.61     0  05:10        0.30
  WS02006228           JUNCTION     0.67     1.03     7.68     0  05:28        1.03
  WS02006229           JUNCTION     0.64     1.03     7.72     0  04:59        1.03
  WS02006280           JUNCTION     0.05     0.14     8.41     0  02:14        0.14
  WS02006284           JUNCTION     0.34     0.48     8.88     0  02:14        0.48
  WS02006287           JUNCTION     0.07     0.21     9.16     0  02:14        0.21
  WSF200               JUNCTION     0.17     0.32     5.55     0  05:10        0.32
  HS02004901           JUNCTION     0.10     0.23    10.05     0  02:12        0.23
  HS02004881           JUNCTION     0.00     0.02     9.05     0  02:14        0.02
  HS02004876           JUNCTION     0.03     0.10     9.13     0  02:13        0.10
  HS02004870           JUNCTION     0.01     0.04     9.33     0  02:14        0.04
  HS02004862           JUNCTION     0.01     0.05     9.43     0  02:15        0.05
  HS02004856           JUNCTION     0.07     0.10     9.53     0  02:14        0.10
  HS02004852           JUNCTION     0.01     0.03     9.54     0  02:15        0.03
  HS02004848           JUNCTION     0.01     0.03     9.63     0  02:13        0.03
  HS02004842           JUNCTION     0.33     0.36     9.63     0  02:13        0.36
  HS02004837           JUNCTION     0.02     0.05     9.63     0  02:13        0.05
  HS02004830           JUNCTION     0.04     0.06     9.53     0  02:14        0.06
  HS02004824           JUNCTION     0.02     0.04     9.44     0  02:16        0.04
  HS02004817           JUNCTION     0.42     0.52     9.37     0  02:15        0.52
  HS02004807           JUNCTION     0.10     0.20     9.37     0  02:15        0.20
  HS02004802           JUNCTION     0.14     0.23     9.36     0  02:15        0.23
  HS02004799           JUNCTION     0.09     0.25     9.46     0  02:13        0.25
  HS02004792           JUNCTION     0.02     0.10     9.62     0  02:12        0.10
  HS02004788           JUNCTION     0.02     0.07     9.97     0  02:13        0.07
  HS02004785           JUNCTION     0.03     0.13    10.03     0  02:13        0.13
  HS02004777           JUNCTION     0.12     0.25    10.05     0  02:12        0.25
  HS02004770           JUNCTION     0.09     0.22    10.05     0  02:12        0.22
  HS02004480           JUNCTION     0.06     0.19     9.44     0  02:13        0.19
  HS02004479           JUNCTION     0.09     0.23     9.44     0  02:13        0.23
  HS02004478           JUNCTION     0.05     0.12     9.35     0  02:14        0.12
  YS02001745           JUNCTION     0.33     0.57     8.08     0  04:36        0.56
  YS02001748           JUNCTION     0.68     1.00     8.08     0  04:36        1.00
  YS02001751           JUNCTION     0.85     1.20     8.08     0  04:36        1.20
  YS02001754           JUNCTION     1.09     1.48     8.09     0  04:46        1.47
  YS02001762           JUNCTION     1.28     1.71     8.11     0  04:46        1.68
  YS02001765           JUNCTION     1.23     1.67     8.12     0  04:46        1.64
  YS02001767           JUNCTION     1.20     1.62     8.11     0  04:46        1.60
  YS02001770           JUNCTION     1.19     1.63     8.12     0  04:46        1.61
  YS02001774           JUNCTION     1.26     1.71     8.13     0  04:46        1.68
  YS02001779           JUNCTION     1.02     1.44     8.13     0  04:46        1.42
  YS02001882           JUNCTION     0.25     0.44     7.16     0  02:46        0.44
  YS02001884           JUNCTION     0.35     0.54     7.16     0  02:46        0.54
  YS02001759           JUNCTION     1.31     1.74     8.10     0  04:46        1.72
  YS02001887           JUNCTION     0.42     0.62     7.16     0  02:46        0.62
  YS02001890           JUNCTION     0.45     0.65     7.16     0  02:46        0.65
  YS02001898           JUNCTION     0.23     0.40     7.14     0  02:47        0.40
  YS02001901           JUNCTION     0.34     0.53     7.14     0  02:48        0.53
  YS02001904           JUNCTION     0.32     0.51     7.14     0  02:48        0.51
  YS02001907           JUNCTION     0.65     0.85     7.14     0  02:48        0.85
  YS02001910           JUNCTION     0.44     0.63     7.14     0  02:47        0.63
  YS02001915           JUNCTION     0.24     0.42     7.14     0  02:47        0.42
  YS02001918           JUNCTION     0.07     0.09     7.16     0  03:03        0.09
  YS02001619           JUNCTION     0.81     1.46     8.39     0  04:46        1.34
  YS02001629           JUNCTION     1.14     1.79     8.34     0  04:46        1.77
  YS02001641           JUNCTION     1.25     1.79     8.23     0  04:46        1.73
  YS02001644           JUNCTION     1.25     1.77     8.20     0  04:46        1.71
  YS02001652           JUNCTION     1.10     1.51     8.10     0  04:46        1.49
  YS02001655           JUNCTION     0.88     1.24     8.09     0  04:37        1.23
  YS02001920           JUNCTION     0.17     0.20     7.21     0  03:02        0.20
  YS02001923           JUNCTION     0.06     0.08     7.34     0  03:01        0.08
  YS02001926           JUNCTION     0.13     0.17     7.62     0  03:01        0.17
  YS02001929           JUNCTION     0.06     0.08     7.78     0  03:01        0.08
  YS02001658           JUNCTION     0.63     0.95     8.09     0  04:37        0.94
  YS02001661           JUNCTION     0.43     0.68     8.09     0  04:37        0.68
  YS02001664           JUNCTION     0.08     0.18     8.11     0  04:48        0.17
  YS02001622           JUNCTION     0.83     1.47     8.38     0  04:46        1.37
  YS02001633           JUNCTION     1.23     1.86     8.31     0  04:46        1.80
  YS02001649           JUNCTION     1.29     1.73     8.12     0  04:46        1.70
  YS02001757           JUNCTION     1.41     1.84     8.10     0  04:46        1.82
  YS02001895           JUNCTION     0.22     0.40     7.15     0  02:47        0.40
  YS02001625           JUNCTION     1.10     1.76     8.36     0  04:46        1.69
  YS02163301           JUNCTION     1.17     1.81     8.33     0  04:46        1.77
  YS02163601           JUNCTION     1.29     1.87     8.27     0  04:46        1.81
  YS02164001           JUNCTION     1.23     1.80     8.25     0  04:46        1.73
  YS02001647           JUNCTION     1.09     1.55     8.16     0  04:46        1.51
  YSB1154              JUNCTION     0.23     0.38     9.44     0  02:13        0.38
  YSB6556              JUNCTION     0.12     0.27     9.44     0  02:13        0.27
  YSB1174              JUNCTION     0.18     0.33     9.44     0  02:13        0.33
  YSB1171              JUNCTION     0.38     0.53     9.44     0  02:13        0.53
  YS02006553           JUNCTION     0.65     0.85     7.14     0  02:48        0.85
  YS02006561           JUNCTION     0.12     0.22     6.88     0  02:48        0.22
  YS02006556           JUNCTION     0.62     0.82     7.13     0  02:48        0.82
  YS02006558           JUNCTION     0.67     0.87     7.13     0  02:48        0.87
  YS02001783           JUNCTION     0.21     0.60     6.75     0  03:22        0.60
  YS02001784           JUNCTION     0.25     0.66     6.73     0  03:22        0.63
  YS02001786           JUNCTION     0.21     0.66     6.69     0  03:22        0.65
  YS02001788           JUNCTION     0.16     0.70     6.68     0  03:22        0.69
  YS02001790           JUNCTION     0.20     1.15     6.79     0  03:19        1.01
  YS02001791           JUNCTION     0.15     1.36     6.83     0  03:18        1.16
  YS02001793           JUNCTION     0.18     1.78     6.61     0  03:22        1.78
  WSC                  OUTFALL      0.27     0.40     1.07     0  05:21        0.40
  JK-storage           STORAGE      1.65     5.80     6.60     0  03:21        5.80
  CC-storage           STORAGE      0.72     1.07     8.07     0  04:36        1.07
  XR-storage           STORAGE      2.44     6.37     4.37     0  07:50        6.37
  
  
  *******************
  Node Inflow Summary
  *******************
  
  -------------------------------------------------------------------------------------------------
                                  Maximum  Maximum                  Lateral       Total        Flow
                                  Lateral    Total  Time of Max      Inflow      Inflow     Balance
                                   Inflow   Inflow   Occurrence      Volume      Volume       Error
  Node                 Type           LPS      LPS  days hr:min    10^6 ltr    10^6 ltr     Percent
  -------------------------------------------------------------------------------------------------
  WS02001211           JUNCTION      7.35   389.15     0  05:47       0.207        7.32       0.380
  WS02001212           JUNCTION      0.00   390.70     0  05:47           0         7.3       0.219
  WS02001213           JUNCTION      0.00   392.05     0  05:47           0        7.29       0.273
  WS02003069           JUNCTION      0.32   947.82     0  05:19     0.00902        13.1       0.134
  WS02003072           JUNCTION      0.00   947.69     0  05:20           0        13.1       0.185
  WS02003073           JUNCTION      1.82   949.43     0  05:20      0.0514        13.1       0.195
  WS02003060           JUNCTION     16.53   947.55     0  05:18       0.466        13.1       0.131
  WS02003066           JUNCTION      0.00   546.20     0  05:12           0         5.4       0.044
  WS02003059           JUNCTION      0.00   394.33     0  06:21           0         7.3       0.374
  WS02003067           JUNCTION      0.00   546.17     0  05:12           0        5.41       0.105
  WS02004401           JUNCTION      0.00   547.33     0  05:15           0        5.56       0.269
  WS02004402           JUNCTION      0.00   547.06     0  05:16           0        5.54       0.262
  WS02004403           JUNCTION      0.00   546.92     0  05:16           0        5.53       0.245
  WS02004404           JUNCTION      0.16   546.91     0  05:16     0.00457        5.52       0.193
  WS02004406           JUNCTION      0.00   546.97     0  05:16           0        5.49       0.473
  WS02004409           JUNCTION      0.00   546.50     0  05:10           0        5.46       0.133
  WS02004410           JUNCTION      0.00   546.38     0  05:11           0        5.45       0.163
  WS02004411           JUNCTION      0.00   546.30     0  05:11           0        5.45       0.178
  WS02004412           JUNCTION      0.00   546.25     0  05:11           0        5.44       0.212
  WS02004413           JUNCTION      0.00   546.21     0  05:17           0        5.42       0.344
  WS02004405           JUNCTION      0.04   546.91     0  05:16     0.00107        5.51       0.294
  WS02006109           JUNCTION      1.23   548.81     0  04:59      0.0347        5.62       0.276
  WS02006110           JUNCTION      0.00   548.44     0  04:59           0         5.6       0.294
  WS02006111           JUNCTION      0.00   571.53     0  05:15           0        5.58       0.051
  WS02006112           JUNCTION      8.92   551.59     0  05:15      0.0254         5.6       0.381
  WS02006113           JUNCTION      0.00   548.61     0  04:59           0        5.59       0.129
  WS02006115           JUNCTION      0.00   549.98     0  05:15           0        5.58       0.229
  WS02006116           JUNCTION      0.00   547.93     0  05:15           0        5.57       0.228
  WS02006230           JUNCTION     10.28   531.86     0  05:00        0.29        4.74       0.236
  WS02006231           JUNCTION      0.00   521.72     0  05:00           0        4.46       0.174
  WS02006232           JUNCTION      0.00   521.58     0  05:00           0        4.47       0.349
  WS02006234           JUNCTION      0.00   521.71     0  05:00           0        4.48       0.091
  WS02006235           JUNCTION      0.00   522.41     0  05:00           0        4.59       0.233
  WS02006238           JUNCTION      0.00   417.81     0  05:40           0        2.24       0.090
  WS02006240           JUNCTION      0.00   416.85     0  05:40           0        2.17       0.460
  WS02006242           JUNCTION      0.00   416.75     0  05:40           0        2.14       0.649
  WS02006243           JUNCTION      0.00   416.72     0  05:40           0        2.12       0.226
  WS02006245           JUNCTION      0.00   416.69     0  05:40           0        2.12       0.551
  WS02006247           JUNCTION      0.00   416.64     0  05:40           0        2.12       0.364
  WS02006248           JUNCTION      0.00   416.64     0  05:40           0        2.12       0.183
  WS02006249           JUNCTION      0.00   416.46     0  05:40           0        2.23       0.497
  WS02006239           JUNCTION      0.00   417.25     0  05:40           0        2.21       0.174
  WS02006251           JUNCTION      0.08   408.13     0  05:41     0.00217        2.27       0.334
  WS02006252           JUNCTION      0.00   400.00     0  05:00           0         2.1       0.021
  WS02006253           JUNCTION      1.32    39.89     0  02:13     0.00329       0.168       2.227
  WS02006256           JUNCTION      0.00   983.00     0  00:00           0        3.94      -0.042
  WS02004138           JUNCTION      0.00   380.00     0  00:00           0        7.13       0.068
  WS02004139           JUNCTION      0.32   396.51     0  00:00     0.00905        7.14       0.470
  WS02004407           JUNCTION      0.00   546.67     0  05:16           0        5.47       0.066
  WS02006228           JUNCTION      0.00   547.35     0  04:59           0         5.6       0.224
  WS02006229           JUNCTION      0.00   545.56     0  04:59           0        5.61       0.236
  WS02006280           JUNCTION      0.00   204.74     0  02:15           0       0.881       0.008
  WS02006284           JUNCTION      0.10   204.73     0  02:14      0.0027       0.882       0.128
  WS02006287           JUNCTION      0.00   204.60     0  02:14           0        0.88       0.082
  WSF200               JUNCTION      0.00   546.26     0  05:12           0         5.4       0.029
  HS02004901           JUNCTION     11.00    11.00     0  02:07      0.0305      0.0307       6.074
  HS02004881           JUNCTION      4.49    38.84     0  02:13      0.0133        0.14       0.056
  HS02004876           JUNCTION      7.24    34.65     0  02:14      0.0255       0.127       0.414
  HS02004870           JUNCTION      7.97    27.60     0  02:14      0.0252       0.102       0.105
  HS02004862           JUNCTION      6.60    20.20     0  02:14      0.0308      0.0765       0.220
  HS02004856           JUNCTION      5.92    13.67     0  02:14       0.019      0.0471       3.148
  HS02004852           JUNCTION      0.00     8.16     0  02:14           0      0.0282       0.177
  HS02004848           JUNCTION     13.13    13.13     0  02:16      0.0601      0.0601       0.073
  HS02004842           JUNCTION      0.00     5.40     0  02:25           0      0.0449      40.703
  HS02004837           JUNCTION     19.19    23.84     0  02:13       0.223       0.255       0.321
  HS02004830           JUNCTION      0.15    23.98     0  02:13     0.00423       0.245       0.505
  HS02004824           JUNCTION     14.69    38.50     0  02:16      0.0787       0.323       0.167
  HS02004817           JUNCTION      0.60    39.10     0  02:16      0.0169       0.339       5.167
  HS02004807           JUNCTION     14.98    52.75     0  02:15      0.0464       0.369       1.159
  HS02004802           JUNCTION      0.00    53.01     0  02:16           0       0.365       1.130
  HS02004799           JUNCTION     11.56   129.46     0  02:12      0.0375       0.456       0.510
  HS02004792           JUNCTION     51.44   118.16     0  02:11       0.164       0.419       0.099
  HS02004788           JUNCTION     17.38    68.79     0  02:12      0.0992       0.256       0.154
  HS02004785           JUNCTION      0.15    51.85     0  02:12     0.00423       0.158       0.304
  HS02004777           JUNCTION      0.03    52.17     0  02:10    0.000846       0.159       3.374
  HS02004770           JUNCTION     43.51    53.39     0  02:09       0.131       0.159       1.981
  HS02004480           JUNCTION      0.00   152.61     0  02:13           0       0.531       0.134
  HS02004479           JUNCTION      0.00    23.67     0  02:15           0       0.088       0.836
  HS02004478           JUNCTION      0.00   204.60     0  02:14           0       0.881       0.069
  YS02001745           JUNCTION     70.80   138.98     0  03:49         0.8       0.821       0.840
  YS02001748           JUNCTION      0.04   182.19     0  03:49     0.00127       0.818       2.502
  YS02001751           JUNCTION      0.01   146.47     0  03:37     0.00031       0.778       2.951
  YS02001754           JUNCTION      0.26    92.51     0  03:31     0.00733        0.76       3.375
  YS02001762           JUNCTION      0.00   107.74     0  02:54           0       0.858       2.608
  YS02001765           JUNCTION      0.00   108.44     0  02:42           0       0.861       2.953
  YS02001767           JUNCTION      0.54   128.35     0  02:56      0.0151       0.883       4.230
  YS02001770           JUNCTION     91.63   129.88     0  02:55       0.937       0.955       3.508
  YS02001774           JUNCTION      0.00    44.64     0  02:55           0      0.0758      51.639
  YS02001779           JUNCTION      0.01    43.46     0  02:55    0.000141      0.0315      94.971
  YS02001882           JUNCTION      0.00     3.73     0  02:06           0     0.00507      48.269
  YS02001884           JUNCTION      0.00    11.13     0  02:05           0      0.0203      31.095
  YS02001759           JUNCTION     89.87   197.71     0  02:54       0.874         1.7       1.421
  YS02001887           JUNCTION    119.27   119.27     0  02:36        1.04        1.06       0.677
  YS02001890           JUNCTION      0.00   118.48     0  02:37           0        1.03       0.760
  YS02001898           JUNCTION      0.00   117.92     0  02:40           0        1.02       0.209
  YS02001901           JUNCTION      0.00   117.83     0  02:42           0        1.02       0.540
  YS02001904           JUNCTION      0.00   117.24     0  02:43           0        1.02       0.501
  YS02001907           JUNCTION      0.00   211.94     0  02:49           0        2.18       1.019
  YS02001910           JUNCTION      0.00    96.38     0  02:59           0        1.17       0.868
  YS02001915           JUNCTION     63.61    95.70     0  02:58       0.685        1.18       0.382
  YS02001918           JUNCTION      0.00    32.80     0  03:02           0       0.492       0.225
  YS02001619           JUNCTION     61.78    61.78     0  02:51       0.675       0.675       1.864
  YS02001629           JUNCTION      0.00    92.25     0  03:33           0       0.595       5.081
  YS02001641           JUNCTION      0.00   135.60     0  02:55           0        1.28       1.726
  YS02001644           JUNCTION     67.24   203.60     0  02:55       0.767        2.02       1.328
  YS02001652           JUNCTION      0.00   100.77     0  02:45           0       0.711       3.433
  YS02001655           JUNCTION      0.15   131.66     0  03:03     0.00434       0.735       3.444
  YS02001920           JUNCTION      2.87    32.82     0  03:01      0.0809       0.494       0.409
  YS02001923           JUNCTION      0.04    29.95     0  03:01     0.00106       0.413       0.072
  YS02001926           JUNCTION      0.05    29.96     0  03:01     0.00147       0.414       0.511
  YS02001929           JUNCTION     29.92    29.92     0  03:01       0.413       0.413       0.070
  YS02001658           JUNCTION      0.00   124.11     0  03:57           0       0.758       2.763
  YS02001661           JUNCTION      0.00    93.58     0  04:48           0       0.777       1.633
  YS02001664           JUNCTION     84.26    84.26     0  02:38       0.764        0.77       0.042
  YS02001622           JUNCTION      0.00    80.91     0  02:57           0       0.663       5.035
  YS02001633           JUNCTION     68.34   134.84     0  03:05        0.79        1.34       2.467
  YS02001649           JUNCTION      0.00   296.78     0  02:53           0        2.63       1.478
  YS02001757           JUNCTION      0.00   504.07     0  02:49           0        4.97       1.909
  YS02001895           JUNCTION      0.00   118.02     0  02:40           0        1.02       0.362
  YS02001625           JUNCTION      0.00    93.57     0  03:33           0       0.632       6.575
  YS02163301           JUNCTION      0.00    76.41     0  02:53           0       0.575       4.472
  YS02163601           JUNCTION      0.11   141.30     0  02:52      0.0031         1.3       2.409
  YS02164001           JUNCTION      0.00   140.94     0  02:52           0        1.28       1.698
  YS02001647           JUNCTION      0.00   201.40     0  02:54           0        1.98       1.490
  YSB1154              JUNCTION     12.87    12.87     0  02:11      0.0455      0.0467       3.189
  YSB6556              JUNCTION      0.00    12.77     0  02:13           0      0.0477       2.679
  YSB1174              JUNCTION     12.42    12.42     0  02:07      0.0331       0.034       3.922
  YSB1171              JUNCTION      0.00    23.69     0  02:13           0      0.0873       7.808
  YS02006553           JUNCTION      0.00   212.00     0  02:50           0        2.17       0.661
  YS02006561           JUNCTION      0.00   311.36     0  02:48           0        3.07       0.021
  YS02006556           JUNCTION      0.00   212.08     0  02:51           0        2.17       0.476
  YS02006558           JUNCTION    100.51   311.38     0  02:48       0.952         3.1       0.146
  YS02001783           JUNCTION      0.00   311.36     0  02:48           0        3.07       0.049
  YS02001784           JUNCTION      1.06   312.42     0  02:48      0.0299         3.1       0.079
  YS02001786           JUNCTION      0.06   312.45     0  02:49     0.00159         3.1       0.078
  YS02001788           JUNCTION      0.07   323.72     0  03:33       0.002         3.1       0.046
  YS02001790           JUNCTION      0.15   384.50     0  03:33     0.00437         3.1       0.039
  YS02001791           JUNCTION      0.00   430.96     0  03:33           0         3.1      -0.016
  YS02001793           JUNCTION      0.00   455.15     0  03:33           0        3.11       0.010
  WSC                  OUTFALL       0.00   949.35     0  05:21           0        13.1       0.000
  JK-storage           STORAGE       0.00   566.18     0  04:47           0        3.26     -19.432
  CC-storage           STORAGE       0.00   501.97     0  02:54           0        4.88       1.134
  XR-storage           STORAGE     326.60   326.60     0  02:51        7.16        7.76      -1.660
  
  
  **********************
  Node Surcharge Summary
  **********************
  
  Surcharging occurs when water rises above the top of the highest conduit.
  ---------------------------------------------------------------------
                                               Max. Height   Min. Depth
                                   Hours       Above Crown    Below Rim
  Node                 Type      Surcharged         Meters       Meters
  ---------------------------------------------------------------------
  WS02006109           JUNCTION        1.48          0.169        1.651
  WS02006110           JUNCTION        0.52          0.021        1.829
  WS02006112           JUNCTION        0.67          0.059        1.621
  WS02006230           JUNCTION        0.47          0.040        1.530
  WS02006231           JUNCTION        0.65          0.159        1.371
  WS02006232           JUNCTION        1.36          0.367        1.113
  WS02006234           JUNCTION        1.08          0.355        0.885
  WS02006235           JUNCTION        1.31          0.454        0.836
  WS02006238           JUNCTION        1.33          0.473        0.957
  WS02006240           JUNCTION        1.29          0.429        0.961
  WS02006242           JUNCTION        1.33          0.496        0.324
  WS02006243           JUNCTION        1.17          0.426        0.344
  WS02006245           JUNCTION        1.14          0.411        0.439
  WS02006247           JUNCTION        1.15          0.427        0.333
  WS02006248           JUNCTION        1.03          0.365        0.015
  WS02006249           JUNCTION        1.06          0.390        0.000
  WS02006239           JUNCTION        1.30          0.434        0.856
  WS02006251           JUNCTION        0.49          0.207        0.973
  WS02006252           JUNCTION        1.30          0.377        0.723
  WS02006253           JUNCTION        0.50          0.247        2.233
  WS02006256           JUNCTION        6.14          2.050        0.000
  WS02006228           JUNCTION        1.43          0.201        1.999
  YS02001751           JUNCTION        3.03          0.203        0.997
  YS02001754           JUNCTION        4.39          0.432        0.718
  YS02001762           JUNCTION        5.13          0.711        0.439
  YS02001765           JUNCTION        4.97          0.665        0.435
  YS02001767           JUNCTION        4.86          0.625        0.405
  YS02001770           JUNCTION        4.75          0.596        0.324
  YS02001774           JUNCTION        5.08          0.710        0.340
  YS02001779           JUNCTION        4.30          0.441        0.239
  YS02001759           JUNCTION        5.21          0.739        0.471
  YS02001619           JUNCTION        2.39          0.461        0.149
  YS02001629           JUNCTION        2.39          0.413        0.057
  YS02001641           JUNCTION        5.04          0.795        0.305
  YS02001644           JUNCTION        5.05          0.769        0.151
  YS02001652           JUNCTION        4.48          0.477        0.653
  YS02001655           JUNCTION        3.38          0.240        0.960
  YS02001622           JUNCTION        2.73          0.474        0.146
  YS02001633           JUNCTION        4.92          0.836        0.224
  YS02001649           JUNCTION        5.16          0.734        0.316
  YS02001757           JUNCTION        5.38          0.841        0.369
  YS02001625           JUNCTION        4.55          0.758        0.022
  YS02163301           JUNCTION        4.80          0.814        0.216
  YS02163601           JUNCTION        5.15          0.874        0.206
  YS02164001           JUNCTION        4.98          0.796        0.304
  YS02001647           JUNCTION        4.51          0.554        0.346
  YS02001790           JUNCTION        0.21          0.346        0.811
  YS02001791           JUNCTION        0.25          0.564        1.356
  YS02001793           JUNCTION        0.33          0.780        1.820
  
  
  *********************
  Node Flooding Summary
  *********************
  
  Flooding refers to all water that overflows a node, whether it ponds or not.
  --------------------------------------------------------------------------
                                                             Total   Maximum
                                 Maximum   Time of Max       Flood    Ponded
                        Hours       Rate    Occurrence      Volume     Depth
  Node                 Flooded       LPS   days hr:min    10^6 ltr    Meters
  --------------------------------------------------------------------------
  WS02006249              0.45     78.21      0  04:58       0.105     0.000
  WS02006256              2.06    978.40      0  00:00       1.507     0.000
  JK-storage              0.11    198.86      0  03:23       0.042     0.000
  
  
  **********************
  Storage Volume Summary
  **********************
  
  --------------------------------------------------------------------------------------------------
                         Average     Avg  Evap Exfil       Maximum     Max    Time of Max    Maximum
                          Volume    Pcnt  Pcnt  Pcnt        Volume    Pcnt     Occurrence    Outflow
  Storage Unit           1000 m3    Full  Loss  Loss       1000 m3    Full    days hr:min        LPS
  --------------------------------------------------------------------------------------------------
  JK-storage               0.083      28     0     0         0.291     100       0  03:21     983.00
  CC-storage               2.004      13     0     0         2.982      19       0  04:36     400.00
  XR-storage               0.293      32     0     0         0.764      82       0  07:50     380.00
  
  
  ***********************
  Outfall Loading Summary
  ***********************
  
  ---------------------------------------------------------------------------------------------------------------------------------
                         Flow       Avg       Max       Total         Total         Total         Total         Total         Total
                         Freq      Flow      Flow      Volume           COD            SS            TN            TP         NH4-N
  Outfall Node           Pcnt       LPS       LPS    10^6 ltr            kg            kg            kg            kg            kg
  ---------------------------------------------------------------------------------------------------------------------------------
  WSC                   99.97    493.72    949.35      13.052      1672.652      2702.009       140.579        17.243        87.002
  ---------------------------------------------------------------------------------------------------------------------------------
  System                99.97    493.72    949.35      13.052      1672.652      2702.009       140.579        17.243        87.002
  
  
  ********************
  Link Flow Summary
  ********************
  
  -----------------------------------------------------------------------------
                                 Maximum  Time of Max   Maximum    Max/    Max/
                                  |Flow|   Occurrence   |Veloc|    Full    Full
  Link                 Type          LPS  days hr:min     m/sec    Flow   Depth
  -----------------------------------------------------------------------------
  WS02003066WSF200     CONDUIT    546.26     0  05:12      2.84    0.09    0.23
  WS02006287WS02006284 CONDUIT    204.63     0  02:14      1.62    0.09    0.22
  WS02006284WS02006280 CONDUIT    204.74     0  02:15      1.86    0.09    0.20
  WS02006280WS02006229 CONDUIT    204.75     0  02:15      2.99    0.04    0.14
  WS02006229WS02006228 CONDUIT    547.35     0  04:59      1.09    1.81    1.00
  WS02006256WS02006235 CONDUIT    288.60     0  00:00      4.23    3.05    1.00
  WS02006253WS02006251 CONDUIT     39.86     0  02:14      0.49    0.12    1.00
  WS02006252WS02006251 CONDUIT    401.01     0  05:01      3.19    1.47    1.00
  WS02006251WS02006249 CONDUIT    416.46     0  05:40      1.13    1.20    1.00
  WS02006249WS02006248 CONDUIT    416.64     0  05:40      1.19    2.28    1.00
  WS02006248WS02006247 CONDUIT    416.64     0  05:40      1.17    0.91    1.00
  WS02006247WS02006245 CONDUIT    416.69     0  05:40      1.15    3.30    1.00
  WS02006245WS02006243 CONDUIT    416.72     0  05:40      1.20    1.23    1.00
  WS02006243WS02006242 CONDUIT    416.75     0  05:40      1.08    0.89    1.00
  WS02006242WS02006240 CONDUIT    416.85     0  05:40      1.08    1.66    1.00
  WS02006240WS02006239 CONDUIT    417.25     0  05:40      1.09    1.31    1.00
  WS02006239WS02006238 CONDUIT    417.81     0  05:40      1.09    1.34    1.00
  WS02006238WS02006235 CONDUIT    419.07     0  05:40      1.46    0.94    1.00
  WS02006235WS02006234 CONDUIT    521.71     0  05:00      1.36    5.50    1.00
  WS02006234WS02006232 CONDUIT    521.58     0  05:00      1.39    1.06    1.00
  WS02006232WS02006231 CONDUIT    521.72     0  05:00      1.36    1.09    1.00
  WS02006231WS02006230 CONDUIT    521.58     0  05:00      1.41    7.91    1.00
  WS02006230WS02006229 CONDUIT    531.82     0  05:29      1.38   11.84    1.00
  WS02006228WS02006109 CONDUIT    547.58     0  04:59      1.09    2.39    1.00
  WS02006116WS02004401 CONDUIT    547.33     0  05:15      0.79    0.75    0.85
  WS02006115WS02006116 CONDUIT    547.93     0  05:15      0.99    0.70    0.77
  WS02006113WS02006111 CONDUIT    571.53     0  05:15      2.48    0.69    0.47
  WS02006112WS02006115 CONDUIT    549.98     0  05:15      0.77    0.32    0.87
  WS02006111WS02006112 CONDUIT    551.54     0  05:15      1.53    0.26    0.67
  WS02006110WS02006113 CONDUIT    548.61     0  04:59      1.29    0.50    0.79
  WS02006109WS02006110 CONDUIT    548.44     0  04:59      1.09    1.05    1.00
  WS02004411WS02004412 CONDUIT    546.25     0  05:11      0.93    0.78    0.70
  WS02004401WS02004402 CONDUIT    547.06     0  05:16      0.75    0.66    0.87
  WS02004413WS02003067 CONDUIT    546.17     0  05:12      1.12    0.23    0.60
  WS02004412WS02004413 CONDUIT    546.21     0  05:17      0.83    0.37    0.78
  WS02004410WS02004411 CONDUIT    546.30     0  05:11      0.94    0.75    0.69
  WS02004409WS02004410 CONDUIT    546.38     0  05:11      0.97    0.71    0.68
  WS02004407WS02004409 CONDUIT    546.50     0  05:10      1.48    0.19    0.49
  WS02004406WS02004407 CONDUIT    546.67     0  05:16      1.05    0.24    0.63
  WS02004405WS02004406 CONDUIT    546.97     0  05:16      0.71    1.08    0.96
  WS02004404WS02004405 CONDUIT    546.87     0  05:16      0.70    5.36    0.97
  WS02004403WS02004404 CONDUIT    546.75     0  05:16      0.72    0.40    0.93
  WS02004402WS02004403 CONDUIT    546.92     0  05:16      0.74    0.79    0.89
  WS02004139WS02001211 CONDUIT    381.80     0  05:47      0.90    0.48    0.60
  WS02004138WS02004139 CONDUIT    396.19     0  00:00      3.65    0.08    0.44
  WS02003067WS02003066 CONDUIT    546.20     0  05:12      1.22    0.18    0.42
  WS02001213WS02003059 CONDUIT    394.33     0  06:21      0.88    0.65    0.78
  WS02001212WS02001213 CONDUIT    392.05     0  05:47      1.32    0.60    0.47
  WS02001211WS02001212 CONDUIT    390.70     0  05:47      0.78    0.30    0.65
  WS02003072WS02003073 CONDUIT    947.61     0  05:20      1.73    2.05    0.49
  WS02003069WS02003072 CONDUIT    947.69     0  05:20      1.63    0.46    0.51
  WS02003060WS02003069 CONDUIT    947.50     0  05:19      1.87    0.37    0.46
  WS02003059WS02003060 CONDUIT    397.88     0  06:21      0.95    0.26    0.66
  HS02004901HS02004770 CONDUIT     10.18     0  02:11      0.05    0.04    0.32
  HS02004876HS02004881 CONDUIT     34.73     0  02:14      0.56    0.37    0.09
  HS02004870HS02004876 CONDUIT     27.58     0  02:14      0.39    0.02    0.10
  HS02004842HS02004848 CONDUIT      5.40     0  02:25      0.03    0.00    0.27
  HS02004837HS02004842 CONDUIT      5.60     0  02:25      0.42    0.00    0.29
  HS02004830HS02004837 CONDUIT     23.83     0  02:13      0.44    0.02    0.08
  HS02004824HS02004830 CONDUIT     23.97     0  02:14      0.48    0.03    0.07
  HS02004817HS02004824 CONDUIT     38.50     0  02:16      0.17    0.02    0.40
  HS02004770HS02004777 CONDUIT     52.14     0  02:10      0.23    0.10    0.33
  HS02004799HS02004480 CONDUIT    129.25     0  02:12      0.59    0.16    0.31
  HS02004792HS02004799 CONDUIT    118.09     0  02:12      0.68    0.07    0.25
  HS02004788HS02004792 CONDUIT     68.73     0  02:13      0.83    0.05    0.12
  HS02004785HS02004788 CONDUIT     51.75     0  02:13      0.51    0.39    0.14
  HS02004777HS02004785 CONDUIT     51.70     0  02:12      0.27    0.06    0.27
  HS02004480HS02004478 CONDUIT    152.56     0  02:13      0.96    0.64    0.23
  HS02004479HS02004480 CONDUIT     23.91     0  02:16      0.15    0.02    0.31
  HS02004862HS02004870 CONDUIT     20.15     0  02:15      0.47    0.02    0.06
  HS02004848HS02004852 CONDUIT      8.16     0  02:14      0.31    0.01    0.04
  HS02004856HS02004862 CONDUIT     13.63     0  02:15      0.34    0.01    0.06
  HS02004852HS02004856 CONDUIT      8.11     0  02:15      0.12    0.01    0.09
  HS02004802HS02004478 CONDUIT     53.41     0  02:17      0.30    0.05    0.26
  HS02004478WS02006287 CONDUIT    204.60     0  02:14      1.31    0.06    0.17
  HS02004817HS02004807 CONDUIT     39.63     0  02:18      0.11    0.02    0.51
  HS02004807HS02004802 CONDUIT     53.01     0  02:16      0.25    0.10    0.30
  YS02001759YS02001757 CONDUIT    197.85     0  02:54      0.25    0.14    1.00
  YS02001762YS02001759 CONDUIT    109.33     0  02:54      0.17    0.13    1.00
  YS02001765YS02001762 CONDUIT    107.74     0  02:54      0.24    0.10    1.00
  YS02001770YS02001767 CONDUIT    127.82     0  02:56      0.30    0.51    1.00
  YS02001774YS02001770 CONDUIT     44.64     0  02:55      0.13    0.03    1.00
  YS02001779YS02001774 CONDUIT     43.45     0  02:55      0.08    0.02    1.00
  YS02001649YS02001757 CONDUIT    298.50     0  02:53      0.38    0.18    1.00
  YS02001767YS02001765 CONDUIT    108.44     0  02:42      0.27    0.14    1.00
  YS02006561YS02001783 CONDUIT    311.36     0  02:48      1.78    0.16    0.50
  YS02001783YS02001784 CONDUIT    311.36     0  02:48      1.23    0.43    0.77
  YS02001784YS02001785 CONDUIT    312.40     0  02:49      1.31    0.73    0.83
  YS02001788YS02001790 CONDUIT    384.34     0  03:33      1.87    0.28    0.94
  YS02001790YS02001791 CONDUIT    430.96     0  03:33      2.17    0.47    1.00
  YS02001791YS02001793 CONDUIT    455.15     0  03:33      4.39    0.20    1.00
  YS02001910YS02001907 CONDUIT     96.62     0  03:00      0.49    0.05    0.74
  YS02001786YS02001788 CONDUIT    323.65     0  03:33      1.77    0.62    0.85
  YS02001915YS02001910 CONDUIT     96.38     0  02:59      0.44    0.05    0.53
  YS02001918YS02001915 CONDUIT     32.79     0  03:03      0.44    0.02    0.26
  YS02001923YS02001920 CONDUIT     29.95     0  03:01      0.44    0.01    0.14
  YS02001926YS02001923 CONDUIT     29.91     0  03:01      0.49    0.04    0.13
  YS02001929YS02001926 CONDUIT     29.91     0  03:01      0.51    0.01    0.13
  YS02001920YS02001918 CONDUIT     32.80     0  03:02      0.46    0.03    0.15
  YS02001629YS02163301 CONDUIT     76.41     0  02:53      0.11    0.09    1.00
  YS02001619YS02001622 CONDUIT     80.91     0  02:57      0.64    0.12    1.00
  YS02001622YS02001625 CONDUIT     93.57     0  03:33      0.25    0.05    1.00
  YS02001625YS02001629 CONDUIT     92.25     0  03:33      0.25    0.04    1.00
  YS02163301YS02001633 CONDUIT     68.70     0  03:05      0.09    0.06    1.00
  YS02163601YS02164001 CONDUIT    140.94     0  02:52      0.18    0.12    1.00
  YS02164001YS02001641 CONDUIT    135.60     0  02:55      0.17    0.19    1.00
  YS02001641YS02001644 CONDUIT    136.36     0  02:55      0.17    0.44    1.00
  YS02001647YS02001649 CONDUIT    225.34     0  03:03      0.29    0.12    1.00
  YS02006553YS02006556 CONDUIT    212.08     0  02:51      0.31    0.18    0.82
  YS02006556YS02006558 CONDUIT    212.11     0  02:51      0.30    0.17    0.84
  YSB6556YSB1171       CONDUIT     13.01     0  02:15      0.06    0.01    0.57
  YS02001907YS02006553 CONDUIT    212.00     0  02:50      0.25    0.25    0.93
  YS02006558YS02006561 CONDUIT    311.36     0  02:48      2.28    0.69    0.49
  YS02001633YS02163601 CONDUIT    141.19     0  02:52      0.18    0.15    1.00
  YS02001644YS02001647 CONDUIT    201.40     0  02:54      0.27    0.12    1.00
  YS02001745YS02001748 CONDUIT    182.15     0  03:49      1.40    0.07    0.74
  YS02001748YS02001751 CONDUIT    146.46     0  03:37      1.09    0.07    1.00
  YS02001751YS02001754 CONDUIT     92.25     0  03:31      0.95    0.04    1.00
  YS02001754YS02001757 CONDUIT    108.21     0  02:52      0.33    0.04    1.00
  YS02001882YS02001884 CONDUIT      3.73     0  02:06      0.07    0.00    0.46
  YS02001884YS02001887 CONDUIT     11.13     0  02:05      0.05    0.01    0.55
  YS02001890YS02001895 CONDUIT    118.02     0  02:40      0.29    0.05    0.53
  YS02001895YS02001898 CONDUIT    117.92     0  02:40      0.46    0.20    0.39
  YS02001898YS02001901 CONDUIT    117.83     0  02:42      0.33    0.08    0.47
  YS02001901YS02001904 CONDUIT    117.24     0  02:43      0.29    0.18    0.52
  YS02001904YS02001907 CONDUIT    117.45     0  02:44      0.21    0.04    0.68
  YS02001887YS02001890 CONDUIT    118.48     0  02:37      0.24    0.20    0.61
  YS02001652YS02001649 CONDUIT    121.70     0  02:47      0.29    0.06    1.00
  YS02001655YS02001652 CONDUIT    100.77     0  02:45      1.01    0.05    1.00
  YS02001658YS02001655 CONDUIT    131.50     0  03:03      1.26    0.06    0.98
  YS02001661YS02001658 CONDUIT    124.11     0  03:57      1.45    0.05    0.78
  YS02001664YS02001661 CONDUIT     93.58     0  04:48      1.11    0.03    0.42
  YSB1154YSB6556       CONDUIT     12.77     0  02:13      0.19    0.02    0.46
  YSB1174YSB1171       CONDUIT     11.63     0  02:08      0.05    0.02    0.58
  YSB1171HS02004479    CONDUIT     23.67     0  02:15      0.54    0.02    0.45
  HS02004881HS02006253 CONDUIT     38.84     0  02:14      1.66    0.01    0.50
  YS02001793JiankangQianchi CONDUIT    566.18     0  04:47     13.36    0.04    1.00
  YS02001757CaochengTiaoxuchi CONDUIT    501.97     0  02:54      0.97    0.22    1.00
  WSF200WS02003060     CONDUIT    547.50     0  05:11      2.11    0.12    0.34
  1                    CONDUIT    949.35     0  05:21      3.28    0.33    0.40
  CC-Pump-1            PUMP       200.00     0  04:40              1.00
  CC-Pump-2            PUMP       200.00     0  05:00              1.00
  JK-Pump-1            PUMP       300.00     0  00:00              1.00
  JK-Pump-2            PUMP       683.00     0  00:00              1.00
  XR-Pump-1            PUMP        95.00     0  00:00              1.00
  XR-Pump-2            PUMP        95.00     0  00:00              1.00
  XR-Pump-3            PUMP        95.00     0  00:00              1.00
  XR-Pump-4            PUMP        95.00     0  00:00              1.00
  
  
  ***************************
  Flow Classification Summary
  ***************************
  
  -------------------------------------------------------------------------------------
                      Adjusted    ---------- Fraction of Time in Flow Class ---------- 
                       /Actual         Up    Down  Sub   Sup   Up    Down  Norm  Inlet 
  Conduit               Length    Dry  Dry   Dry   Crit  Crit  Crit  Crit  Ltd   Ctrl  
  -------------------------------------------------------------------------------------
  WS02003066WSF200        1.00   0.02  0.11  0.00  0.00  0.87  0.00  0.00  0.61  0.00
  WS02006287WS02006284    1.00   0.04  0.03  0.00  0.73  0.20  0.00  0.00  0.78  0.00
  WS02006284WS02006280    1.00   0.06  0.00  0.00  0.00  0.00  0.00  0.94  0.00  0.00
  WS02006280WS02006229    1.00   0.06  0.00  0.00  0.00  0.00  0.00  0.94  0.00  0.00
  WS02006229WS02006228    1.00   0.00  0.00  0.00  0.99  0.00  0.00  0.01  0.00  0.00
  WS02006256WS02006235    1.00   0.00  0.00  0.00  1.00  0.00  0.00  0.00  0.00  0.00
  WS02006253WS02006251    1.00   0.02  0.03  0.00  0.94  0.00  0.01  0.00  0.00  0.00
  WS02006252WS02006251    1.00   0.38  0.00  0.00  0.05  0.00  0.57  0.00  0.00  0.00
  WS02006251WS02006249    1.00   0.00  0.00  0.00  1.00  0.00  0.00  0.00  0.69  0.00
  WS02006249WS02006248    1.00   0.00  0.01  0.00  0.65  0.00  0.34  0.00  0.00  0.00
  WS02006248WS02006247    1.00   0.01  0.00  0.00  0.96  0.00  0.00  0.03  0.45  0.00
  WS02006247WS02006245    1.00   0.01  0.00  0.00  0.92  0.00  0.00  0.06  0.00  0.00
  WS02006245WS02006243    1.00   0.01  0.00  0.00  0.84  0.00  0.00  0.16  0.02  0.00
  WS02006243WS02006242    1.00   0.00  0.00  0.00  0.99  0.00  0.00  0.01  0.44  0.00
  WS02006242WS02006240    1.00   0.00  0.00  0.00  0.98  0.00  0.02  0.00  0.00  0.00
  WS02006240WS02006239    1.00   0.00  0.00  0.00  0.84  0.00  0.00  0.16  0.02  0.00
  WS02006239WS02006238    1.00   0.00  0.00  0.00  1.00  0.00  0.00  0.00  0.22  0.00
  WS02006238WS02006235    1.00   0.00  0.00  0.00  1.00  0.00  0.00  0.00  0.00  0.00
  WS02006235WS02006234    1.00   0.00  0.00  0.00  0.89  0.00  0.11  0.00  0.00  0.00
  WS02006234WS02006232    1.00   0.00  0.00  0.00  1.00  0.00  0.00  0.00  0.17  0.00
  WS02006232WS02006231    1.00   0.00  0.00  0.00  1.00  0.00  0.00  0.00  0.00  0.00
  WS02006231WS02006230    1.00   0.00  0.00  0.00  0.47  0.00  0.53  0.00  0.00  0.00
  WS02006230WS02006229    1.00   0.00  0.00  0.00  0.99  0.00  0.00  0.01  0.01  0.00
  WS02006228WS02006109    1.00   0.00  0.00  0.00  1.00  0.00  0.00  0.00  0.01  0.00
  WS02006116WS02004401    1.00   0.02  0.00  0.00  0.98  0.00  0.00  0.00  0.01  0.00
  WS02006115WS02006116    1.00   0.02  0.00  0.00  0.96  0.00  0.00  0.03  0.01  0.00
  WS02006113WS02006111    1.00   0.01  0.00  0.00  0.00  0.99  0.00  0.00  0.25  0.00
  WS02006112WS02006115    1.00   0.01  0.01  0.00  0.98  0.00  0.00  0.00  0.00  0.00
  WS02006111WS02006112    1.00   0.01  0.00  0.00  0.99  0.00  0.00  0.00  0.98  0.00
  WS02006110WS02006113    1.00   0.01  0.00  0.00  0.99  0.00  0.00  0.00  0.00  0.00
  WS02006109WS02006110    1.00   0.00  0.01  0.00  0.99  0.00  0.00  0.00  0.00  0.00
  WS02004411WS02004412    1.00   0.09  0.00  0.00  0.91  0.00  0.00  0.00  0.00  0.00
  WS02004401WS02004402    1.00   0.02  0.00  0.00  0.98  0.00  0.00  0.00  0.01  0.00
  WS02004413WS02003067    1.00   0.09  0.03  0.00  0.00  0.00  0.88  0.00  0.00  0.00
  WS02004412WS02004413    1.00   0.09  0.00  0.00  0.91  0.00  0.00  0.00  0.01  0.00
  WS02004410WS02004411    1.00   0.09  0.00  0.00  0.91  0.00  0.00  0.00  0.00  0.00
  WS02004409WS02004410    1.00   0.09  0.00  0.00  0.91  0.00  0.00  0.00  0.00  0.00
  WS02004407WS02004409    1.00   0.09  0.00  0.00  0.91  0.01  0.00  0.00  0.77  0.00
  WS02004406WS02004407    1.00   0.00  0.09  0.00  0.91  0.00  0.00  0.00  0.00  0.00
  WS02004405WS02004406    1.00   0.00  0.00  0.00  1.00  0.00  0.00  0.00  0.02  0.00
  WS02004404WS02004405    1.00   0.00  0.00  0.00  1.00  0.00  0.00  0.00  0.00  0.00
  WS02004403WS02004404    1.00   0.00  0.02  0.00  0.98  0.00  0.00  0.00  0.02  0.00
  WS02004402WS02004403    1.00   0.02  0.00  0.00  0.98  0.00  0.00  0.00  0.00  0.00
  WS02004139WS02001211    1.00   0.00  0.00  0.00  1.00  0.00  0.00  0.00  0.00  0.00
  WS02004138WS02004139    1.00   0.00  0.02  0.00  0.98  0.00  0.00  0.00  1.00  0.00
  WS02003067WS02003066    1.00   0.12  0.01  0.00  0.87  0.00  0.00  0.00  0.00  0.00
  WS02001213WS02003059    1.00   0.00  0.00  0.00  1.00  0.00  0.00  0.00  0.00  0.00
  WS02001212WS02001213    1.00   0.00  0.00  0.00  0.59  0.00  0.41  0.00  0.00  0.00
  WS02001211WS02001212    1.00   0.00  0.00  0.00  1.00  0.00  0.00  0.00  0.00  0.00
  WS02003072WS02003073    1.00   0.00  0.00  0.00  0.00  0.00  0.00  1.00  0.00  0.00
  WS02003069WS02003072    1.00   0.00  0.00  0.00  1.00  0.00  0.00  0.00  0.39  0.00
  WS02003060WS02003069    1.00   0.00  0.00  0.00  0.95  0.05  0.00  0.00  0.28  0.00
  WS02003059WS02003060    1.00   0.00  0.00  0.00  1.00  0.00  0.00  0.00  0.00  0.00
  HS02004901HS02004770    1.00   0.06  0.00  0.00  0.94  0.00  0.00  0.00  0.02  0.00
  HS02004876HS02004881    1.00   0.01  0.00  0.00  0.99  0.00  0.00  0.00  0.00  0.00
  HS02004870HS02004876    1.00   0.00  0.00  0.00  0.99  0.00  0.00  0.00  0.95  0.00
  HS02004842HS02004848    1.00   0.00  0.06  0.00  0.94  0.00  0.00  0.00  0.67  0.00
  HS02004837HS02004842    1.00   0.00  0.00  0.00  1.00  0.00  0.00  0.00  0.11  0.00
  HS02004830HS02004837    1.00   0.00  0.00  0.00  1.00  0.00  0.00  0.00  0.99  0.00
  HS02004824HS02004830    1.00   0.00  0.00  0.00  1.00  0.00  0.00  0.00  0.00  0.00
  HS02004817HS02004824    1.00   0.00  0.00  0.00  1.00  0.00  0.00  0.00  1.00  0.00
  HS02004770HS02004777    1.00   0.00  0.06  0.00  0.94  0.00  0.00  0.00  0.06  0.00
  HS02004799HS02004480    1.00   0.00  0.02  0.00  0.92  0.00  0.06  0.00  0.00  0.00
  HS02004792HS02004799    1.00   0.00  0.00  0.00  0.99  0.01  0.00  0.00  0.98  0.00
  HS02004788HS02004792    1.00   0.00  0.00  0.00  0.99  0.01  0.00  0.00  0.98  0.00
  HS02004785HS02004788    1.00   0.00  0.00  0.00  1.00  0.00  0.00  0.00  0.00  0.00
  HS02004777HS02004785    1.00   0.00  0.00  0.00  1.00  0.00  0.00  0.00  0.19  0.00
  HS02004480HS02004478    1.00   0.06  0.00  0.00  0.74  0.00  0.00  0.19  0.00  0.00
  HS02004479HS02004480    1.00   0.02  0.00  0.00  0.98  0.00  0.00  0.00  0.15  0.00
  HS02004862HS02004870    1.00   0.00  0.00  0.00  1.00  0.00  0.00  0.00  0.05  0.00
  HS02004848HS02004852    1.00   0.06  0.00  0.00  0.94  0.00  0.00  0.00  0.71  0.00
  HS02004856HS02004862    1.00   0.00  0.10  0.00  0.90  0.00  0.00  0.00  0.76  0.00
  HS02004852HS02004856    1.00   0.06  0.02  0.00  0.93  0.00  0.00  0.00  0.82  0.00
  HS02004802HS02004478    1.00   0.06  0.01  0.00  0.93  0.00  0.00  0.00  0.00  0.00
  HS02004478WS02006287    1.00   0.08  0.00  0.00  0.87  0.06  0.00  0.00  0.78  0.00
  HS02004817HS02004807    1.00   0.00  0.06  0.00  0.94  0.00  0.00  0.00  0.00  0.00
  HS02004807HS02004802    1.00   0.06  0.00  0.00  0.94  0.00  0.00  0.00  0.01  0.00
  YS02001759YS02001757    1.00   0.00  0.00  0.00  1.00  0.00  0.00  0.00  0.18  0.00
  YS02001762YS02001759    1.00   0.00  0.00  0.00  1.00  0.00  0.00  0.00  0.04  0.00
  YS02001765YS02001762    1.00   0.00  0.00  0.00  1.00  0.00  0.00  0.00  0.21  0.00
  YS02001770YS02001767    1.00   0.00  0.00  0.00  1.00  0.00  0.00  0.00  0.00  0.00
  YS02001774YS02001770    1.00   0.00  0.07  0.00  0.93  0.00  0.00  0.00  0.05  0.00
  YS02001779YS02001774    1.00   0.00  0.00  0.00  1.00  0.00  0.00  0.00  0.25  0.00
  YS02001649YS02001757    1.00   0.00  0.00  0.00  1.00  0.00  0.00  0.00  0.19  0.00
  YS02001767YS02001765    1.00   0.00  0.00  0.00  1.00  0.00  0.00  0.00  0.01  0.00
  YS02006561YS02001783    1.00   0.11  0.00  0.00  0.02  0.88  0.00  0.00  0.74  0.00
  YS02001783YS02001784    1.00   0.00  0.11  0.00  0.89  0.00  0.00  0.00  0.00  0.00
  YS02001784YS02001785    1.00   0.00  0.00  0.00  1.00  0.00  0.00  0.00  0.24  0.00
  YS02001788YS02001790    1.00   0.00  0.00  0.00  0.14  0.86  0.00  0.00  0.78  0.00
  YS02001790YS02001791    1.00   0.00  0.00  0.00  0.06  0.94  0.00  0.00  0.49  0.00
  YS02001791YS02001793    1.00   0.00  0.00  0.00  0.13  0.87  0.00  0.00  0.05  0.00
  YS02001910YS02001907    1.00   0.00  0.00  0.00  0.99  0.00  0.00  0.01  0.13  0.00
  YS02001786YS02001788    1.00   0.00  0.00  0.00  0.14  0.86  0.00  0.00  0.00  0.00
  YS02001915YS02001910    1.00   0.00  0.00  0.00  0.99  0.01  0.00  0.00  0.23  0.00
  YS02001918YS02001915    1.00   0.00  0.00  0.00  0.99  0.01  0.00  0.00  0.82  0.00
  YS02001923YS02001920    1.00   0.00  0.00  0.00  1.00  0.00  0.00  0.00  1.00  0.00
  YS02001926YS02001923    1.00   0.00  0.03  0.00  0.00  0.00  0.97  0.00  0.00  0.00
  YS02001929YS02001926    1.00   0.00  0.06  0.00  0.94  0.00  0.00  0.00  0.86  0.00
  YS02001920YS02001918    1.00   0.00  0.00  0.00  1.00  0.00  0.00  0.00  0.00  0.00
  YS02001629YS02163301    1.00   0.09  0.01  0.00  0.91  0.00  0.00  0.00  0.00  0.00
  YS02001619YS02001622    1.00   0.06  0.00  0.00  0.94  0.00  0.00  0.00  0.00  0.00
  YS02001622YS02001625    1.00   0.06  0.00  0.00  0.94  0.00  0.00  0.00  0.12  0.00
  YS02001625YS02001629    1.00   0.06  0.05  0.00  0.86  0.00  0.02  0.00  0.00  0.00
  YS02163301YS02001633    1.00   0.00  0.09  0.00  0.91  0.00  0.00  0.00  0.00  0.00
  YS02163601YS02164001    1.00   0.00  0.04  0.00  0.96  0.00  0.00  0.00  0.00  0.00
  YS02164001YS02001641    1.00   0.01  0.03  0.00  0.96  0.00  0.00  0.00  0.07  0.00
  YS02001641YS02001644    1.00   0.00  0.00  0.00  1.00  0.00  0.00  0.00  0.00  0.00
  YS02001647YS02001649    1.00   0.00  0.10  0.00  0.90  0.00  0.00  0.00  0.01  0.00
  YS02006553YS02006556    1.00   0.01  0.00  0.00  0.99  0.00  0.00  0.00  0.03  0.00
  YS02006556YS02006558    1.00   0.00  0.00  0.00  1.00  0.00  0.00  0.00  0.00  0.00
  YSB6556YSB1171          1.00   0.02  0.03  0.00  0.95  0.00  0.00  0.00  0.00  0.00
  YS02001907YS02006553    1.00   0.00  0.01  0.00  0.99  0.00  0.00  0.00  0.00  0.00
  YS02006558YS02006561    1.00   0.11  0.00  0.00  0.00  0.89  0.00  0.00  0.73  0.00
  YS02001633YS02163601    1.00   0.00  0.00  0.00  0.99  0.00  0.00  0.00  0.20  0.00
  YS02001644YS02001647    1.00   0.00  0.10  0.00  0.90  0.00  0.00  0.00  0.00  0.00
  YS02001745YS02001748    1.00   0.00  0.00  0.00  0.82  0.01  0.00  0.16  0.12  0.00
  YS02001748YS02001751    1.00   0.00  0.00  0.00  0.95  0.05  0.00  0.00  0.22  0.00
  YS02001751YS02001754    1.00   0.00  0.00  0.00  0.88  0.00  0.00  0.12  0.02  0.00
  YS02001754YS02001757    1.00   0.00  0.00  0.00  1.00  0.00  0.00  0.00  0.25  0.00
  YS02001882YS02001884    1.00   0.08  0.01  0.00  0.91  0.00  0.00  0.00  0.00  0.00
  YS02001884YS02001887    1.00   0.03  0.02  0.00  0.95  0.00  0.00  0.00  0.00  0.00
  YS02001890YS02001895    1.00   0.00  0.09  0.00  0.91  0.00  0.00  0.00  0.00  0.00
  YS02001895YS02001898    1.00   0.09  0.00  0.00  0.89  0.00  0.02  0.00  0.00  0.00
  YS02001898YS02001901    1.00   0.09  0.01  0.00  0.90  0.00  0.00  0.00  0.02  0.00
  YS02001901YS02001904    1.00   0.09  0.00  0.00  0.91  0.00  0.00  0.00  0.00  0.00
  YS02001904YS02001907    1.00   0.00  0.09  0.00  0.91  0.00  0.00  0.00  0.00  0.00
  YS02001887YS02001890    1.00   0.00  0.00  0.00  0.98  0.00  0.01  0.00  0.00  0.00
  YS02001652YS02001649    1.00   0.00  0.00  0.00  1.00  0.00  0.00  0.00  0.25  0.00
  YS02001655YS02001652    1.00   0.00  0.00  0.00  0.88  0.00  0.00  0.12  0.02  0.00
  YS02001658YS02001655    1.00   0.00  0.08  0.00  0.87  0.06  0.00  0.00  0.10  0.00
  YS02001661YS02001658    1.00   0.08  0.00  0.00  0.82  0.10  0.00  0.00  0.15  0.00
  YS02001664YS02001661    1.00   0.05  0.00  0.00  0.81  0.14  0.00  0.00  0.67  0.00
  YSB1154YSB6556          1.00   0.05  0.00  0.00  0.95  0.00  0.00  0.00  0.02  0.00
  YSB1174YSB1171          1.00   0.02  0.02  0.00  0.96  0.00  0.00  0.00  0.00  0.00
  YSB1171HS02004479       1.00   0.02  0.00  0.00  0.98  0.00  0.00  0.01  0.13  0.00
  HS02004881HS02006253    1.00   0.02  0.00  0.00  0.46  0.00  0.00  0.51  0.23  0.00
  YS02001793JiankangQianchi    1.00   0.00  0.00  0.00  0.68  0.32  0.00  0.00  0.58  0.00
  YS02001757CaochengTiaoxuchi    1.00   0.00  0.13  0.00  0.87  0.00  0.00  0.00  0.00  0.00
  WSF200WS02003060        1.00   0.00  0.02  0.00  0.78  0.20  0.00  0.00  0.63  0.00
  1                       1.00   0.00  0.00  0.00  0.00  1.00  0.00  0.00  0.45  0.00
  
  
  *************************
  Conduit Surcharge Summary
  *************************
  
  ----------------------------------------------------------------------------
                                                           Hours        Hours 
                         --------- Hours Full --------   Above Full   Capacity
  Conduit                Both Ends  Upstream  Dnstream   Normal Flow   Limited
  ----------------------------------------------------------------------------
  WS02006229WS02006228        1.43      1.53      1.43      2.01         1.43
  WS02006256WS02006235        4.20      4.21      6.14      3.27         0.01
  WS02006253WS02006251        1.03      1.03      1.05      0.01         0.01
  WS02006252WS02006251        0.93      0.93      1.30      1.20         0.01
  WS02006251WS02006249        1.03      1.03      1.06      0.88         0.80
  WS02006249WS02006248        1.03      1.03      1.06      1.68         0.01
  WS02006248WS02006247        1.06      1.06      1.15      0.01         0.01
  WS02006247WS02006245        1.14      1.16      1.14      1.76         1.14
  WS02006245WS02006243        1.15      1.15      1.17      0.49         0.47
  WS02006243WS02006242        1.24      1.24      1.33      0.01         0.01
  WS02006242WS02006240        1.29      1.29      1.35      1.23         0.01
  WS02006240WS02006239        1.29      1.30      1.30      0.94         0.83
  WS02006239WS02006238        1.33      1.33      1.33      0.94         0.87
  WS02006238WS02006235        1.32      1.32      1.35      0.01         0.01
  WS02006235WS02006234        1.08      1.08      1.31      4.16         0.01
  WS02006234WS02006232        1.28      1.28      1.36      0.54         0.54
  WS02006232WS02006231        0.65      0.65      1.36      0.60         0.01
  WS02006231WS02006230        0.47      0.47      0.68      4.32         0.01
  WS02006230WS02006229        1.88      1.94      1.88      4.81         1.88
  WS02006228WS02006109        1.48      1.75      1.48      2.99         1.48
  WS02006112WS02006115        0.01      0.01      0.67      0.01         0.01
  WS02006111WS02006112        0.01      0.01      2.27      0.01         0.01
  WS02006110WS02006113        0.01      0.01      1.63      0.01         0.01
  WS02006109WS02006110        0.52      0.52      1.75      0.53         0.01
  WS02004405WS02004406        0.01      0.01      0.01      0.58         0.01
  WS02004404WS02004405        0.01      0.01      0.01      4.79         0.01
  WS02003072WS02003073        0.01      0.01      0.01      3.47         0.01
  YS02001759YS02001757        5.21      5.21      5.38      0.01         0.01
  YS02001762YS02001759        5.13      5.13      5.21      0.01         0.01
  YS02001765YS02001762        4.97      4.97      5.13      0.01         0.01
  YS02001770YS02001767        4.84      4.84      4.86      0.01         0.24
  YS02001774YS02001770        4.75      4.75      5.08      0.01         0.01
  YS02001779YS02001774        4.30      4.30      5.08      0.01         0.01
  YS02001649YS02001757        5.16      5.16      5.38      0.01         0.01
  YS02001767YS02001765        4.86      4.86      4.97      0.01         0.01
  YS02001788YS02001790        0.01      0.01      0.21      0.01         0.01
  YS02001790YS02001791        0.21      0.21      0.25      0.01         0.01
  YS02001791YS02001793        0.25      0.25      0.46      0.01         0.01
  YS02001629YS02163301        4.70      4.70      4.80      0.01         0.01
  YS02001619YS02001622        2.39      2.39      2.72      0.01         0.01
  YS02001622YS02001625        2.72      2.72      4.55      0.01         0.01
  YS02001625YS02001629        2.39      2.39      4.55      0.01         0.01
  YS02163301YS02001633        4.80      4.80      4.99      0.01         0.01
  YS02163601YS02164001        4.98      4.98      5.15      0.01         0.01
  YS02164001YS02001641        4.98      4.98      5.04      0.01         0.01
  YS02001641YS02001644        5.04      5.04      5.05      0.01         0.30
  YS02001647YS02001649        4.51      4.51      5.16      0.01         0.01
  YS02001633YS02163601        4.92      4.92      5.15      0.01         0.01
  YS02001644YS02001647        4.51      4.51      5.05      0.01         0.01
  YS02001748YS02001751        0.07      0.07      3.03      0.01         0.01
  YS02001751YS02001754        3.03      3.03      4.40      0.01         0.01
  YS02001754YS02001757        4.52      4.52      5.38      0.01         0.01
  YS02001652YS02001649        4.56      4.56      5.16      0.01         0.01
  YS02001655YS02001652        3.38      3.38      4.48      0.01         0.01
  YS02001658YS02001655        0.01      0.01      3.37      0.01         0.01
  HS02004881HS02006253        0.01      0.01      0.50      0.01         0.01
  YS02001793JiankangQianchi        0.33      0.33      2.94      0.01         0.01
  YS02001757CaochengTiaoxuchi        0.95      0.95      5.38      0.01         0.01
  
  
  ***************
  Pumping Summary
  ***************
  
  ---------------------------------------------------------------------------------------------------------
                                                  Min       Avg       Max     Total     Power    % Time Off
                        Percent   Number of      Flow      Flow      Flow    Volume     Usage    Pump Curve
  Pump                 Utilized   Start-Ups       LPS       LPS       LPS  10^6 ltr     Kw-hr    Low   High
  ---------------------------------------------------------------------------------------------------------
  CC-Pump-1               25.53           2      0.00    174.50    200.00     1.260      2.71    0.0    0.0
  CC-Pump-2               21.27           1      0.00    113.06    200.00     0.840      1.99    0.0    0.0
  JK-Pump-1               48.94           5      0.00    170.27    300.00     2.102     35.35    0.0    0.0
  JK-Pump-2               38.31           5      0.00    179.00    683.00     1.833     35.78    0.0   95.9
  XR-Pump-1               87.23           3      0.00     87.07     95.00     2.166     44.13    0.0    0.0
  XR-Pump-2               85.11           4      0.00     82.52     95.00     1.938     39.32    0.0    0.0
  XR-Pump-3               68.10           6      0.00     83.73     95.00     1.511     30.90    0.0    0.0
  XR-Pump-4               68.10           6      0.00     83.73     95.00     1.511     30.90    0.0    0.0
  
  
  ***************************
  Link Pollutant Load Summary
  ***************************
  
  ------------------------------------------------------------------------------------------
                                 COD            SS            TN            TP         NH4-N
  Link                            kg            kg            kg            kg            kg
  ------------------------------------------------------------------------------------------
  WS02003066WSF200           313.029       523.868        12.417         1.273         7.049
  WS02006287WS02006284       107.579       183.586         6.269         0.724         3.753
  WS02006284WS02006280       108.005       184.272         6.309         0.729         3.778
  WS02006280WS02006229       107.987       184.242         6.308         0.729         3.778
  WS02006229WS02006228       308.510       516.048        12.044         1.226         6.818
  WS02006256WS02006235        79.452       130.846         2.660         0.253         1.470
  WS02006253WS02006251        14.824        26.467         0.438         0.038         0.233
  WS02006252WS02006251       122.778       201.415         3.105         0.245         1.582
  WS02006251WS02006249       134.394       222.663         3.459         0.277         1.772
  WS02006249WS02006248       127.481       211.293         3.282         0.263         1.681
  WS02006248WS02006247       127.402       211.187         3.280         0.263         1.680
  WS02006247WS02006245       127.204       210.862         3.276         0.262         1.678
  WS02006245WS02006243       127.031       210.619         3.266         0.261         1.672
  WS02006243WS02006242       127.979       212.228         3.295         0.264         1.688
  WS02006242WS02006240       129.314       214.442         3.340         0.268         1.713
  WS02006240WS02006239       131.183       217.572         3.399         0.274         1.746
  WS02006239WS02006238       133.884       221.966         3.504         0.284         1.806
  WS02006238WS02006235       135.592       224.634         3.573         0.291         1.845
  WS02006235WS02006234       203.498       336.628         5.831         0.506         3.092
  WS02006234WS02006232       203.256       336.228         5.833         0.506         3.094
  WS02006232WS02006231       202.460       334.937         5.805         0.504         3.078
  WS02006231WS02006230       201.779       333.862         5.785         0.502         3.068
  WS02006230WS02006229       201.425       333.283         5.778         0.502         3.065
  WS02006228WS02006109       307.890       515.076        12.019         1.223         6.804
  WS02006116WS02004401       314.554       526.244        12.589         1.294         7.158
  WS02006115WS02006116       314.910       526.791        12.622         1.299         7.179
  WS02006113WS02006111       314.110       525.046        12.701         1.310         7.234
  WS02006112WS02006115       315.696       528.071        12.680         1.305         7.214
  WS02006111WS02006112       313.787       524.533        12.681         1.308         7.222
  WS02006110WS02006113       314.666       525.949        12.736         1.314         7.255
  WS02006109WS02006110       315.838       527.838        12.810         1.323         7.299
  WS02004411WS02004412       313.914       525.317        12.501         1.283         7.102
  WS02004401WS02004402       313.996       525.340        12.543         1.289         7.129
  WS02004413WS02003067       313.069       523.911        12.423         1.273         7.053
  WS02004412WS02004413       313.678       524.940        12.479         1.280         7.088
  WS02004410WS02004411       314.005       525.451        12.513         1.285         7.110
  WS02004409WS02004410       314.150       525.684        12.528         1.287         7.119
  WS02004407WS02004409       314.070       525.530        12.529         1.287         7.120
  WS02004406WS02004407       313.801       525.058        12.516         1.285         7.112
  WS02004405WS02004406       314.551       526.275        12.586         1.294         7.156
  WS02004404WS02004405       314.236       525.723        12.567         1.292         7.145
  WS02004403WS02004404       313.327       524.271        12.480         1.281         7.090
  WS02004402WS02004403       313.734       524.935        12.515         1.285         7.112
  WS02004139WS02001211      1215.036      1946.797       114.247        14.231        71.253
  WS02004138WS02004139      1218.037      1951.610       114.522        14.265        71.424
  WS02003067WS02003066       313.035       523.878        12.419         1.273         7.051
  WS02001213WS02003059      1252.103      2006.129       117.784        14.672        73.463
  WS02001212WS02001213      1260.184      2019.042       118.580        14.772        73.961
  WS02001211WS02001212      1261.127      2020.541       118.677        14.784        74.022
  WS02003072WS02003073      1666.164      2691.607       139.966        17.167        86.619
  WS02003069WS02003072      1668.894      2695.980       140.220        17.198        86.777
  WS02003060WS02003069      1670.083      2697.879       140.331        17.212        86.846
  WS02003059WS02003060      1250.194      2003.138       117.523        14.639        73.297
  HS02004901HS02004770         2.556         4.606         0.050         0.004         0.023
  HS02004876HS02004881        10.155        18.413         0.307         0.027         0.163
  HS02004870HS02004876         7.881        14.206         0.271         0.025         0.147
  HS02004842HS02004848         1.401         2.441         0.031         0.002         0.014
  HS02004837HS02004842         6.034         9.825         0.498         0.061         0.307
  HS02004830HS02004837        48.638        79.110         4.234         0.523         2.630
  HS02004824HS02004830        49.388        80.312         4.306         0.532         2.675
  HS02004817HS02004824        54.879        90.209         4.449         0.543         2.748
  HS02004770HS02004777         9.869        17.917         0.216         0.014         0.098
  HS02004799HS02004480        43.331        74.923         1.963         0.212         1.129
  HS02004792HS02004799        40.518        69.466         1.958         0.216         1.136
  HS02004788HS02004792        26.797        45.749         1.546         0.176         0.917
  HS02004785HS02004788        11.358        20.312         0.367         0.033         0.193
  HS02004777HS02004785        10.859        19.507         0.322         0.028         0.165
  HS02004480HS02004478        51.514        90.217         2.058         0.216         1.166
  HS02004479HS02004480        12.687        22.478         0.524         0.057         0.305
  HS02004862HS02004870         5.928        10.447         0.231         0.023         0.128
  HS02004848HS02004852         1.620         2.848         0.036         0.002         0.016
  HS02004856HS02004862         3.189         5.837         0.067         0.004         0.031
  HS02004852HS02004856         1.618         2.844         0.036         0.002         0.016
  HS02004802HS02004478        56.359        93.849         4.238         0.511         2.604
  HS02004478WS02006287       107.754       183.872         6.284         0.726         3.763
  HS02004817HS02004807        53.507        88.015         4.318         0.526         2.667
  HS02004807HS02004802        57.133        95.084         4.313         0.520         2.651
  YS02001759YS02001757        93.841       154.998         2.239         0.164         1.132
  YS02001762YS02001759        50.325        83.853         1.360         0.106         0.708
  YS02001765YS02001762        49.915        83.079         1.377         0.109         0.719
  YS02001770YS02001767        47.491        79.090         1.084         0.070         0.533
  YS02001774YS02001770         4.685         7.872         0.120         0.009         0.061
  YS02001779YS02001774         3.696         6.124         0.170         0.018         0.099
  YS02001649YS02001757       137.118       219.344         3.041         0.219         1.461
  YS02001767YS02001765        49.994        83.142         1.394         0.111         0.730
  YS02006561YS02001783       203.768       334.543         6.087         0.543         3.280
  YS02001783YS02001784       203.702       334.448         6.084         0.543         3.278
  YS02001784YS02001785       211.083       346.277         6.797         0.632         3.724
  YS02001788YS02001790       211.772       347.405         6.870         0.641         3.770
  YS02001790YS02001791       212.846       349.141         6.973         0.654         3.834
  YS02001791YS02001793       212.849       349.161         6.969         0.654         3.832
  YS02001910YS02001907        73.754       119.349         3.218         0.325         1.843
  YS02001786YS02001788       211.328       346.682         6.825         0.635         3.742
  YS02001915YS02001910        73.643       119.117         3.175         0.319         1.815
  YS02001918YS02001915        40.835        64.156         2.416         0.277         1.451
  YS02001923YS02001920        20.810        32.110         0.478         0.035         0.239
  YS02001926YS02001923        20.436        31.507         0.439         0.030         0.215
  YS02001929YS02001926        20.150        31.039         0.407         0.026         0.195
  YS02001920YS02001918        40.753        64.026         2.396         0.275         1.438
  YS02001629YS02163301        23.300        37.460         0.535         0.033         0.247
  YS02001619YS02001622        26.226        41.904         0.605         0.037         0.278
  YS02001622YS02001625        25.335        40.594         0.582         0.036         0.267
  YS02001625YS02001629        24.296        39.056         0.557         0.034         0.256
  YS02163301YS02001633        23.241        37.389         0.532         0.033         0.246
  YS02163601YS02164001        66.115       105.385         1.517         0.110         0.741
  YS02164001YS02001641        65.744       104.799         1.497         0.108         0.729
  YS02001641YS02001644        66.135       105.452         1.494         0.107         0.726
  YS02001647YS02001649       105.464       167.628         2.262         0.161         1.089
  YS02006553YS02006556       149.306       244.407         4.803         0.449         2.639
  YS02006556YS02006558       149.273       244.347         4.767         0.444         2.616
  YSB6556YSB1171               6.332        11.343         0.197         0.020         0.110
  YS02001907YS02006553       149.266       244.350         4.804         0.449         2.641
  YS02006558YS02006561       203.767       334.529         6.087         0.543         3.280
  YS02001633YS02163601        66.703       106.239         1.499         0.107         0.726
  YS02001644YS02001647       106.309       168.869         2.282         0.162         1.098
  YS02001745YS02001748        47.014        76.612         1.802         0.170         1.008
  YS02001748YS02001751        43.847        71.547         1.650         0.155         0.920
  YS02001751YS02001754        43.583        71.157         1.713         0.164         0.963
  YS02001754YS02001757        44.564        72.751         1.881         0.187         1.071
  YS02001882YS02001884         0.497         0.779         0.016         0.001         0.009
  YS02001884YS02001887         1.904         3.084         0.053         0.005         0.028
  YS02001890YS02001895        76.384       126.219         1.598         0.125         0.802
  YS02001895YS02001898        76.253       126.031         1.592         0.124         0.799
  YS02001898YS02001901        76.146       125.882         1.589         0.124         0.797
  YS02001901YS02001904        76.258       126.095         1.614         0.127         0.813
  YS02001904YS02001907        77.162       127.586         1.719         0.140         0.880
  YS02001887YS02001890        77.238       127.539         1.663         0.132         0.842
  YS02001652YS02001649        33.502        54.553         0.808         0.059         0.383
  YS02001655YS02001652        34.366        55.879         0.833         0.061         0.395
  YS02001658YS02001655        34.031        55.246         0.752         0.050         0.341
  YS02001661YS02001658        35.303        57.158         0.783         0.052         0.355
  YS02001664YS02001661        35.566        57.464         0.792         0.053         0.359
  YSB1154YSB6556               5.805        10.505         0.132         0.012         0.069
  YSB1174YSB1171               4.430         8.055         0.139         0.014         0.077
  YSB1171HS02004479           12.559        22.283         0.510         0.056         0.296
  HS02004881HS02006253        11.389        20.756         0.326         0.028         0.171
  YS02001793JiankangQianchi       214.117       351.200         7.029         0.660         3.867
  YS02001757CaochengTiaoxuchi       269.239       437.754         6.799         0.530         3.450
  WSF200WS02003060           313.121       524.030        12.426         1.274         7.055
  1                         1672.652      2702.009       140.579        17.243        87.002
  CC-Pump-1                   73.132       119.900         1.836         0.144         0.933
  CC-Pump-2                   49.284        80.940         1.236         0.097         0.628
  JK-Pump-1                   90.077       148.266         3.010         0.286         1.662
  JK-Pump-2                   61.357       101.775         1.770         0.156         0.949
  XR-Pump-1                  384.602       616.142        36.228         4.514        22.598
  XR-Pump-2                  339.902       544.575        31.981         3.984        19.947
  XR-Pump-3                  248.581       398.354        23.327         2.905        14.545
  XR-Pump-4                  248.581       398.354        23.327         2.905        14.545
  

  Analysis begun on:  Sat Jul 10 21:52:28 2021
  Analysis ended on:  Sat Jul 10 21:52:30 2021
  Total elapsed time: 00:00:02