
  EPA STORM WATER MANAGEMENT MODEL - VERSION 5.1 (Build 5.3.0.dev0)
  --------------------------------------------------------------

  WARNING 04: minimum elevation drop used for Conduit WS02004404WS02004405
  WARNING 03: negative offset ignored for Link YS02001904YS02001907
  
  *********************************************************
  NOTE: The summary statistics displayed in this report are
  based on results found at every computational time step,  
  not just on results from each reporting time step.
  *********************************************************
  
  ****************
  Analysis Options
  ****************
  Flow Units ............... LPS
  Process Models:
    Rainfall/Runoff ........ YES
    RDII ................... NO
    Snowmelt ............... NO
    Groundwater ............ NO
    Flow Routing ........... YES
    Ponding Allowed ........ NO
    Water Quality .......... YES
  Infiltration Method ...... HORTON
  Flow Routing Method ...... DYNWAVE
  Surcharge Method ......... EXTRAN
  Starting Date ............ 08/28/2015 08:00:00
  Ending Date .............. 08/28/2015 15:50:00
  Antecedent Dry Days ...... 8.0
  Report Time Step ......... 00:01:00
  Wet Time Step ............ 00:01:00
  Dry Time Step ............ 00:01:00
  Routing Time Step ........ 5.00 sec
  Variable Time Step ....... YES
  Maximum Trials ........... 8
  Number of Threads ........ 4
  Head Tolerance ........... 0.001500 m
  
  
  **************************        Volume         Depth
  Runoff Quantity Continuity     hectare-m            mm
  **************************     ---------       -------
  Total Precipitation ......         5.556        12.164
  Evaporation Loss .........         0.000         0.000
  Infiltration Loss ........         1.002         2.194
  Surface Runoff ...........         3.688         8.075
  Final Storage ............         0.866         1.897
  Continuity Error (%) .....        -0.019
  
  
  **************************           COD            SS            TN            TP         NH4-N
  Runoff Quality Continuity             kg            kg            kg            kg            kg
  **************************    ----------    ----------    ----------    ----------    ----------
  Initial Buildup ..........     41378.656     70582.865      1804.177       168.684      1032.807
  Surface Buildup ..........        19.275        34.271         2.335         0.213         1.362
  Wet Deposition ...........         0.000         0.000         0.000         0.000         0.000
  Sweeping Removal .........         0.000         0.000         0.000         0.000         0.000
  Infiltration Loss ........        84.023       157.502         1.599         0.111         0.761
  BMP Removal ..............         0.000         0.000         0.000         0.000         0.000
  Surface Runoff ...........      3122.074      5752.154        60.620         4.098        28.771
  Remaining Buildup ........     38190.779     64705.500      1744.271       164.686      1004.628
  Continuity Error (%) .....         0.003         0.003         0.001         0.001         0.001
  
  
  **************************        Volume        Volume
  Flow Routing Continuity        hectare-m      10^6 ltr
  **************************     ---------     ---------
  Dry Weather Inflow .......         0.616         6.165
  Wet Weather Inflow .......         3.687        36.872
  Groundwater Inflow .......         0.000         0.000
  RDII Inflow ..............         0.000         0.000
  External Inflow ..........         0.102         1.024
  External Outflow .........         1.798        17.983
  Flooding Loss ............         2.181        21.811
  Evaporation Loss .........         0.000         0.000
  Exfiltration Loss ........         0.000         0.000
  Initial Stored Volume ....         0.076         0.761
  Final Stored Volume ......         0.627         6.268
  Continuity Error (%) .....        -2.768
  
  
  **************************           COD            SS            TN            TP         NH4-N
  Quality Routing Continuity            kg            kg            kg            kg            kg
  **************************    ----------    ----------    ----------    ----------    ----------
  Dry Weather Inflow .......      1541.201      2465.922       147.955        18.494        92.472
  Wet Weather Inflow .......      3121.440      5751.101        60.606         4.097        28.764
  Groundwater Inflow .......         0.000         0.000         0.000         0.000         0.000
  RDII Inflow ..............         0.000         0.000         0.000         0.000         0.000
  External Inflow ..........       183.418       293.469        17.608         2.201        11.005
  External Outflow .........      2168.292      3688.737       147.939        17.602        90.027
  Flooding Loss ............      1956.645      3575.503        50.462         4.363        26.483
  Exfiltration Loss ........         0.000         0.000         0.000         0.000         0.000
  Mass Reacted .............         0.000         0.000         0.000         0.000         0.000
  Initial Stored Mass ......         0.000         0.000         0.000         0.000         0.000
  Final Stored Mass ........       547.999       944.407        23.675         2.509        13.662
  Continuity Error (%) .....         3.572         3.547         1.810         1.286         1.566
  
  
  *************************
  Highest Continuity Errors
  *************************
  Node HS02004842 (14.53%)
  Node JK-storage (-12.35%)
  Node YS02001884 (11.58%)
  Node YSB1171 (2.74%)
  Node HS02004817 (2.73%)
  
  
  ***************************
  Time-Step Critical Elements
  ***************************
  Link WS02006252WS02006251 (55.01%)
  Link WS02006280WS02006229 (9.73%)
  Link WS02006238WS02006235 (6.97%)
  Link YS02001793JiankangQianchi (6.77%)
  Link YS02006556YS02006558 (5.74%)
  
  
  ********************************
  Highest Flow Instability Indexes
  ********************************
  Link WS02006113WS02006111 (50)
  Link YS02163601YS02164001 (39)
  Link YS02163301YS02001633 (38)
  Link YS02001619YS02001622 (38)
  Link YS02001629YS02163301 (37)
  
  
  *************************
  Routing Time Step Summary
  *************************
  Minimum Time Step           :     0.50 sec
  Average Time Step           :     1.38 sec
  Maximum Time Step           :     5.00 sec
  Percent in Steady State     :    -0.00
  Average Iterations per Step :     4.46
  Percent Not Converging      :    21.73
  
  
  ***************************
  Subcatchment Runoff Summary
  ***************************
  
  ------------------------------------------------------------------------------------------------------------------------------
                            Total      Total      Total      Total     Imperv       Perv      Total       Total     Peak  Runoff
                           Precip      Runon       Evap      Infil     Runoff     Runoff     Runoff      Runoff   Runoff   Coeff
  Subcatchment                 mm         mm         mm         mm         mm         mm         mm    10^6 ltr      LPS
  ------------------------------------------------------------------------------------------------------------------------------
  sub0                      12.16       0.00       0.00       0.65      11.27       0.20      11.47        0.01     1.99   0.943
  sub1                      12.16       0.00       0.00       1.12      10.73       0.22      10.95        0.07    14.96   0.900
  sub2                      12.16       0.00       0.00       4.23       7.58       0.27       7.85        0.07    15.08   0.646
  sub3                      12.16       0.00       0.00       4.29       7.54       0.21       7.75        0.17    34.61   0.637
  sub4                      12.16       0.00       0.00       1.19      10.57       0.14      10.71        0.22    42.34   0.881
  sub5                      12.16       0.00       0.00       0.69      11.21       0.16      11.38        0.13    26.18   0.935
  sub7                      12.16       0.00       0.00       0.88      11.01       0.22      11.22        0.04     7.95   0.923
  sub8                      12.16       0.00       0.00       0.89      11.00       0.21      11.20        0.07    14.89   0.921
  sub9                      12.16       0.00       0.00       0.89      10.99       0.21      11.20        0.05    11.18   0.921
  sub10                     12.16       0.00       0.00       0.79      11.10       0.18      11.28        0.12    25.49   0.928
  sub11                     12.16       0.00       0.00       0.78      11.12       0.19      11.31        0.13    27.35   0.930
  sub12                     12.16       0.00       0.00       1.27      10.53       0.31      10.85        0.09    20.52   0.892
  sub14                     12.16       0.00       0.00       0.89      10.99       0.20      11.20        0.11    22.08   0.920
  sub15                     12.16       0.00       0.00       3.28       8.45       0.37       8.82        0.15    32.49   0.725
  sub16                     12.16       0.00       0.00       3.51       8.11       0.50       8.61        0.09    20.36   0.708
  sub17                     12.16       0.00       0.00       3.41       8.23       0.48       8.71        0.07    16.72   0.716
  sub22                     12.16       0.00       0.00       4.80       6.89       0.43       7.32        0.46   102.62   0.602
  sub23                     12.16       0.00       0.00       4.05       7.62       0.45       8.07        0.38    85.35   0.663
  sub60                     12.16       0.00       0.00       1.42       8.82       0.04       8.86        2.69   336.84   0.729
  sub61                     12.16       0.00       0.00       2.01       8.94       0.06       9.00        2.78   399.45   0.740
  sub62                     12.16       0.00       0.00       0.92       9.73       0.05       9.78        3.01   415.79   0.804
  sub63                     12.16       0.00       0.00       3.46       7.82       0.06       7.88        2.39   361.21   0.648
  sub64                     12.16       0.00       0.00       1.78       8.47       0.04       8.51        2.59   320.97   0.699
  sub65                     12.16       0.00       0.00       1.54       8.61       0.04       8.65        2.66   326.54   0.711
  sub66                     12.16       0.00       0.00       3.49       7.26       0.04       7.30        2.24   290.53   0.600
  sub67                     12.16       0.00       0.00       0.91      10.24       0.07      10.31        3.18   494.23   0.848
  sub68                     12.16       0.00       0.00       1.64       9.40       0.06       9.46        2.91   432.52   0.778
  sub69                     12.16       0.00       0.00       1.73       9.72       0.09       9.82        2.29   383.95   0.807
  sub70                     12.16      10.02       0.00       6.98      13.09       0.56      13.65        3.12   394.93   0.615
  sub71                     12.16       0.00       0.00       0.93       9.48       0.05       9.53        2.25   296.34   0.783
  sub72                     12.16       0.00       0.00       0.83       7.62       0.02       7.64        1.56   151.13   0.628
  1                         12.16      13.29       0.00       1.37      14.64       3.94      18.57        4.36   399.24   0.730
  2                         12.16       0.00       0.00       3.02       2.89       1.65       4.55        1.82   245.52   0.374
  
  
  ****************************
  Subcatchment Washoff Summary
  ****************************
  
  ------------------------------------------------------------------------------------------
                                 COD            SS            TN            TP         NH4-N
  Subcatchment                    kg            kg            kg            kg            kg
  ------------------------------------------------------------------------------------------
  sub0                         2.176         4.147         0.037         0.003         0.018
  sub1                         9.268        18.138         0.173         0.012         0.083
  sub2                         5.563        10.570         0.119         0.008         0.054
  sub3                        13.747        25.918         0.288         0.019         0.132
  sub4                        21.530        42.606         0.429         0.026         0.205
  sub5                        21.300        41.103         0.378         0.029         0.183
  sub7                         4.748         9.424         0.090         0.006         0.043
  sub8                         7.142        14.500         0.143         0.008         0.069
  sub9                         6.100        12.212         0.118         0.007         0.057
  sub10                       17.532        34.266         0.321         0.023         0.155
  sub11                       17.086        33.770         0.320         0.022         0.154
  sub12                       14.392        27.890         0.260         0.019         0.125
  sub14                       13.021        25.823         0.247         0.016         0.119
  sub15                       16.182        30.744         0.313         0.023         0.146
  sub16                       10.318        19.555         0.197         0.015         0.092
  sub17                        9.471        17.789         0.175         0.014         0.082
  sub22                       48.821        90.813         0.932         0.070         0.434
  sub23                       29.138        56.181         0.627         0.041         0.287
  sub60                      203.703       376.194         4.083         0.248         1.956
  sub61                      251.300       461.579         4.699         0.320         2.261
  sub62                      262.762       491.326         5.157         0.324         2.474
  sub63                      185.047       334.594         3.739         0.261         1.731
  sub64                      253.867       452.095         4.687         0.339         2.235
  sub65                      260.106       465.192         4.834         0.344         2.309
  sub66                      146.558       263.078         3.037         0.197         1.417
  sub67                      388.205       718.566         6.963         0.510         3.363
  sub68                      276.714       513.393         5.318         0.356         2.539
  sub69                      247.676       464.012         4.658         0.325         2.225
  sub70                      413.256       778.342         8.287         0.572         3.877
  sub71                      173.740       327.842         3.597         0.206         1.720
  sub72                      136.329       239.316         2.558         0.174         1.230
  1                          280.724       531.718         5.751         0.398         2.660
  2                           35.485        61.812         1.030         0.062         0.437
  ------------------------------------------------------------------------------------------
  System                    3783.006      6994.507        73.566         4.996        34.873
  
  
  ******************
  Node Depth Summary
  ******************
  
  ---------------------------------------------------------------------------------
                                 Average  Maximum  Maximum  Time of Max    Reported
                                   Depth    Depth      HGL   Occurrence   Max Depth
  Node                 Type       Meters   Meters   Meters  days hr:min      Meters
  ---------------------------------------------------------------------------------
  WS02001211           JUNCTION     0.77     0.83     5.66     0  03:10        0.83
  WS02001212           JUNCTION     0.47     0.55     5.61     0  03:09        0.55
  WS02001213           JUNCTION     0.71     0.82     5.58     0  03:08        0.82
  WS02003069           JUNCTION     0.49     0.67     5.26     0  03:08        0.67
  WS02003072           JUNCTION     0.56     0.72     5.09     0  03:08        0.72
  WS02003073           JUNCTION     0.34     0.45     4.52     0  03:09        0.45
  WS02003060           JUNCTION     0.44     0.59     5.53     0  03:07        0.59
  WS02003066           JUNCTION     0.23     0.36     5.92     0  03:06        0.36
  WS02003059           JUNCTION     0.76     0.87     5.56     0  03:08        0.87
  WS02003067           JUNCTION     0.56     0.79     6.11     0  03:05        0.79
  WS02004401           JUNCTION     0.68     1.13     7.13     0  03:02        1.13
  WS02004402           JUNCTION     0.71     1.14     7.10     0  03:03        1.13
  WS02004403           JUNCTION     0.73     1.12     7.05     0  03:03        1.11
  WS02004404           JUNCTION     0.80     1.17     7.02     0  03:03        1.17
  WS02004406           JUNCTION     0.80     1.12     6.95     0  03:03        1.11
  WS02004409           JUNCTION     0.49     0.86     6.63     0  03:05        0.86
  WS02004410           JUNCTION     0.51     0.86     6.58     0  03:05        0.86
  WS02004411           JUNCTION     0.52     0.85     6.53     0  03:05        0.85
  WS02004412           JUNCTION     0.54     0.84     6.48     0  03:05        0.84
  WS02004413           JUNCTION     0.69     0.98     6.45     0  03:06        0.98
  WS02004405           JUNCTION     0.79     1.15     7.00     0  03:03        1.15
  WS02006109           JUNCTION     0.77     1.30     7.92     0  03:03        1.30
  WS02006110           JUNCTION     0.75     1.14     7.73     0  03:03        1.14
  WS02006111           JUNCTION     0.23     0.65     7.36     0  03:03        0.65
  WS02006112           JUNCTION     0.85     1.41     7.30     0  03:03        1.41
  WS02006113           JUNCTION     0.34     0.64     7.54     0  03:03        0.64
  WS02006115           JUNCTION     0.57     1.09     7.23     0  03:03        1.09
  WS02006116           JUNCTION     0.65     1.14     7.18     0  03:03        1.14
  WS02006230           JUNCTION     0.75     1.51     8.26     0  03:02        1.51
  WS02006231           JUNCTION     0.50     1.21     8.33     0  03:02        1.19
  WS02006232           JUNCTION     0.63     1.36     8.40     0  03:02        1.35
  WS02006234           JUNCTION     0.55     1.31     8.47     0  03:02        1.30
  WS02006235           JUNCTION     0.59     1.36     8.53     0  03:02        1.35
  WS02006238           JUNCTION     0.61     1.39     8.53     0  03:02        1.37
  WS02006240           JUNCTION     0.49     1.28     8.57     0  03:02        1.27
  WS02006242           JUNCTION     0.54     1.36     8.63     0  02:59        1.32
  WS02006243           JUNCTION     0.41     1.29     8.71     0  02:59        1.20
  WS02006245           JUNCTION     0.38     1.28     8.76     0  02:59        1.15
  WS02006247           JUNCTION     0.39     1.26     8.76     0  02:59        1.16
  WS02006248           JUNCTION     0.33     1.10     8.69     0  02:59        1.09
  WS02006249           JUNCTION     0.35     1.09     8.69     0  02:59        1.09
  WS02006239           JUNCTION     0.56     1.34     8.55     0  03:02        1.33
  WS02006251           JUNCTION     0.32     1.53     9.20     0  03:18        1.13
  WS02006252           JUNCTION     0.21     1.07     9.31     0  03:18        0.68
  WS02006253           JUNCTION     0.35     1.51     9.16     0  03:18        1.15
  WS02006256           JUNCTION     1.72     2.35     9.28     0  00:42        2.35
  WS02004138           JUNCTION     0.19     0.20     7.45     0  00:00        0.19
  WS02004139           JUNCTION     0.71     0.77     5.68     0  03:10        0.77
  WS02004407           JUNCTION     0.22     0.37     6.68     0  03:04        0.37
  WS02006228           JUNCTION     0.77     1.43     8.08     0  03:03        1.43
  WS02006229           JUNCTION     0.75     1.48     8.17     0  03:02        1.48
  WS02006280           JUNCTION     0.07     0.20     8.47     0  03:02        0.20
  WS02006284           JUNCTION     0.38     0.56     8.96     0  03:02        0.56
  WS02006287           JUNCTION     0.11     0.30     9.25     0  03:01        0.30
  WSF200               JUNCTION     0.21     0.40     5.63     0  03:06        0.40
  HS02004901           JUNCTION     0.13     0.29    10.12     0  03:01        0.29
  HS02004881           JUNCTION     0.01     0.04     9.07     0  03:01        0.04
  HS02004876           JUNCTION     0.05     0.12     9.15     0  03:01        0.12
  HS02004870           JUNCTION     0.02     0.07     9.35     0  03:01        0.07
  HS02004862           JUNCTION     0.02     0.08     9.46     0  03:01        0.08
  HS02004856           JUNCTION     0.08     0.13     9.55     0  03:01        0.13
  HS02004852           JUNCTION     0.01     0.05     9.56     0  03:01        0.05
  HS02004848           JUNCTION     0.01     0.05     9.65     0  03:01        0.05
  HS02004842           JUNCTION     0.34     0.38     9.65     0  03:01        0.38
  HS02004837           JUNCTION     0.03     0.07     9.65     0  03:01        0.07
  HS02004830           JUNCTION     0.04     0.08     9.55     0  03:01        0.08
  HS02004824           JUNCTION     0.03     0.06     9.47     0  03:01        0.06
  HS02004817           JUNCTION     0.45     0.61     9.45     0  03:01        0.61
  HS02004807           JUNCTION     0.13     0.28     9.45     0  03:01        0.28
  HS02004802           JUNCTION     0.17     0.31     9.44     0  03:01        0.31
  HS02004799           JUNCTION     0.13     0.35     9.56     0  03:01        0.35
  HS02004792           JUNCTION     0.04     0.15     9.67     0  03:01        0.15
  HS02004788           JUNCTION     0.03     0.11    10.01     0  03:01        0.11
  HS02004785           JUNCTION     0.05     0.18    10.09     0  03:01        0.18
  HS02004777           JUNCTION     0.16     0.31    10.11     0  03:01        0.31
  HS02004770           JUNCTION     0.13     0.29    10.12     0  03:01        0.29
  HS02004480           JUNCTION     0.09     0.28     9.52     0  03:01        0.28
  HS02004479           JUNCTION     0.13     0.32     9.52     0  03:01        0.32
  HS02004478           JUNCTION     0.07     0.20     9.42     0  03:01        0.20
  YS02001745           JUNCTION     0.73     0.92     8.44     0  03:00        0.92
  YS02001748           JUNCTION     1.12     2.27     9.35     0  02:28        1.35
  YS02001751           JUNCTION     1.30     2.13     9.01     0  02:28        1.55
  YS02001754           JUNCTION     1.55     2.11     8.72     0  02:28        1.82
  YS02001762           JUNCTION     1.75     2.08     8.48     0  02:28        2.02
  YS02001765           JUNCTION     1.71     2.01     8.46     0  02:28        1.97
  YS02001767           JUNCTION     1.67     1.98     8.47     0  02:28        1.92
  YS02001770           JUNCTION     1.66     1.95     8.44     0  02:28        1.92
  YS02001774           JUNCTION     1.73     2.01     8.43     0  02:28        1.97
  YS02001779           JUNCTION     1.48     1.68     8.37     0  02:28        1.68
  YS02001882           JUNCTION     0.56     1.64     8.35     0  02:47        1.61
  YS02001884           JUNCTION     0.65     1.73     8.34     0  02:47        1.71
  YS02001759           JUNCTION     1.79     2.10     8.47     0  02:28        2.06
  YS02001887           JUNCTION     0.73     1.80     8.34     0  02:47        1.79
  YS02001890           JUNCTION     0.76     1.81     8.32     0  02:47        1.81
  YS02001898           JUNCTION     0.53     1.57     8.30     0  02:47        1.55
  YS02001901           JUNCTION     0.65     1.68     8.29     0  02:47        1.67
  YS02001904           JUNCTION     0.62     1.64     8.27     0  02:47        1.63
  YS02001907           JUNCTION     0.96     1.96     8.25     0  02:47        1.96
  YS02001910           JUNCTION     0.74     1.78     8.29     0  02:48        1.78
  YS02001915           JUNCTION     0.54     1.60     8.32     0  02:48        1.59
  YS02001918           JUNCTION     0.30     1.30     8.36     0  02:48        1.28
  YS02001619           JUNCTION     1.26     1.59     8.52     0  02:28        1.47
  YS02001629           JUNCTION     1.61     1.85     8.40     0  02:27        1.84
  YS02001641           JUNCTION     1.71     1.94     8.37     0  02:35        1.93
  YS02001644           JUNCTION     1.72     1.92     8.35     0  02:28        1.92
  YS02001652           JUNCTION     1.57     2.16     8.76     0  02:38        1.90
  YS02001655           JUNCTION     1.33     2.20     9.05     0  02:20        1.69
  YS02001920           JUNCTION     0.40     1.38     8.39     0  02:48        1.36
  YS02001923           JUNCTION     0.23     1.14     8.40     0  02:48        1.13
  YS02001926           JUNCTION     0.28     0.99     8.43     0  02:48        0.90
  YS02001929           JUNCTION     0.16     0.73     8.42     0  02:48        0.70
  YS02001658           JUNCTION     1.06     2.30     9.44     0  02:40        1.45
  YS02001661           JUNCTION     0.83     2.46     9.86     0  02:38        1.22
  YS02001664           JUNCTION     0.37     0.58     8.51     0  03:59        0.57
  YS02001622           JUNCTION     1.29     1.59     8.49     0  02:28        1.49
  YS02001633           JUNCTION     1.71     1.95     8.40     0  02:35        1.94
  YS02001649           JUNCTION     1.76     2.05     8.44     0  02:28        2.05
  YS02001757           JUNCTION     1.89     2.21     8.47     0  02:28        2.16
  YS02001895           JUNCTION     0.52     1.57     8.31     0  02:47        1.55
  YS02001625           JUNCTION     1.57     1.78     8.38     0  02:26        1.78
  YS02163301           JUNCTION     1.64     1.88     8.40     0  02:35        1.87
  YS02163601           JUNCTION     1.76     1.99     8.39     0  02:35        1.98
  YS02164001           JUNCTION     1.69     1.92     8.38     0  02:36        1.91
  YS02001647           JUNCTION     1.55     1.80     8.41     0  02:40        1.79
  YSB1154              JUNCTION     0.27     0.47     9.52     0  03:01        0.47
  YSB6556              JUNCTION     0.16     0.35     9.52     0  03:01        0.35
  YSB1174              JUNCTION     0.22     0.41     9.52     0  03:01        0.41
  YSB1171              JUNCTION     0.42     0.62     9.52     0  03:01        0.62
  YS02006553           JUNCTION     0.96     1.97     8.25     0  02:59        1.96
  YS02006561           JUNCTION     0.32     1.10     7.76     0  02:47        1.07
  YS02006556           JUNCTION     0.92     1.92     8.23     0  02:57        1.92
  YS02006558           JUNCTION     0.96     1.96     8.23     0  02:59        1.95
  YS02001783           JUNCTION     0.52     1.49     7.63     0  02:47        1.47
  YS02001784           JUNCTION     0.54     1.61     7.68     0  02:43        1.41
  YS02001786           JUNCTION     0.47     1.73     7.76     0  02:43        1.25
  YS02001788           JUNCTION     0.40     1.72     7.70     0  02:43        1.12
  YS02001790           JUNCTION     0.50     1.79     7.44     0  02:43        1.28
  YS02001791           JUNCTION     0.45     1.67     7.14     0  02:42        1.27
  YS02001793           JUNCTION     0.60     1.99     6.82     0  02:43        1.80
  WSC                  OUTFALL      0.34     0.45     1.12     0  03:09        0.45
  JK-storage           STORAGE      2.55     5.80     6.60     0  02:01        5.80
  CC-storage           STORAGE      1.14     1.42     8.42     0  03:11        1.42
  XR-storage           STORAGE      6.42     7.72     5.72     0  02:55        7.72
  
  
  *******************
  Node Inflow Summary
  *******************
  
  -------------------------------------------------------------------------------------------------
                                  Maximum  Maximum                  Lateral       Total        Flow
                                  Lateral    Total  Time of Max      Inflow      Inflow     Balance
                                   Inflow   Inflow   Occurrence      Volume      Volume       Error
  Node                 Type           LPS      LPS  days hr:min    10^6 ltr    10^6 ltr     Percent
  -------------------------------------------------------------------------------------------------
  WS02001211           JUNCTION      7.35   390.95     0  03:14       0.207        10.1       0.394
  WS02001212           JUNCTION      0.00   394.21     0  03:14           0          10       0.234
  WS02001213           JUNCTION      0.00   397.15     0  03:14           0          10       0.275
  WS02003069           JUNCTION      0.32  1197.20     0  03:07     0.00902          18       0.167
  WS02003072           JUNCTION      0.00  1197.21     0  03:08           0          18       0.207
  WS02003073           JUNCTION      1.82  1199.51     0  03:08      0.0514          18       0.235
  WS02003060           JUNCTION     16.53  1196.51     0  03:07       0.466        18.1       0.157
  WS02003066           JUNCTION      0.00   818.80     0  03:06           0        7.65       0.045
  WS02003059           JUNCTION      0.00   401.02     0  03:14           0        9.99       0.389
  WS02003067           JUNCTION      0.00   818.06     0  03:06           0        7.65       0.097
  WS02004401           JUNCTION      0.00   827.25     0  03:04           0        7.83       0.200
  WS02004402           JUNCTION      0.00   827.39     0  03:04           0        7.81       0.195
  WS02004403           JUNCTION      0.00   827.46     0  03:04           0         7.8       0.184
  WS02004404           JUNCTION      0.16   827.55     0  03:04     0.00457        7.79       0.133
  WS02004406           JUNCTION      0.00   827.36     0  03:04           0        7.76       0.354
  WS02004409           JUNCTION      0.00   826.82     0  03:04           0        7.73       0.137
  WS02004410           JUNCTION      0.00   821.60     0  03:04           0        7.72       0.166
  WS02004411           JUNCTION      0.00   818.83     0  03:05           0        7.71       0.178
  WS02004412           JUNCTION      0.00   817.87     0  03:05           0        7.69       0.203
  WS02004413           JUNCTION      0.00   817.77     0  03:06           0        7.68       0.315
  WS02004405           JUNCTION      0.04   827.51     0  03:04     0.00107        7.78       0.209
  WS02006109           JUNCTION      1.23   820.26     0  03:02      0.0347        7.83       0.153
  WS02006110           JUNCTION      0.00   820.45     0  03:02           0        7.82       0.168
  WS02006111           JUNCTION      0.00   813.16     0  03:03           0         7.8       0.022
  WS02006112           JUNCTION     16.72   826.59     0  03:04      0.0747        7.88       0.305
  WS02006113           JUNCTION      0.00   820.28     0  03:02           0        7.81       0.056
  WS02006115           JUNCTION      0.00   826.53     0  03:04           0        7.85       0.164
  WS02006116           JUNCTION      0.00   827.12     0  03:04           0        7.84       0.148
  WS02006230           JUNCTION     10.28   517.81     0  05:04        0.29        5.65       0.130
  WS02006231           JUNCTION      0.00   507.58     0  05:04           0        5.36      -0.010
  WS02006232           JUNCTION      0.00   507.58     0  05:04           0        5.37       0.174
  WS02006234           JUNCTION      0.00   507.56     0  05:04           0        5.37      -0.026
  WS02006235           JUNCTION      0.00   507.52     0  05:04           0        5.47       0.125
  WS02006238           JUNCTION      0.00   347.36     0  05:42           0        2.11       0.074
  WS02006240           JUNCTION      0.00   352.00     0  05:41           0        2.01       0.080
  WS02006242           JUNCTION      0.00   356.03     0  05:41           0        1.98       0.103
  WS02006243           JUNCTION      0.00   357.76     0  05:41           0        1.96      -0.056
  WS02006245           JUNCTION      0.00   357.71     0  05:41           0        1.96       0.250
  WS02006247           JUNCTION      0.00   360.00     0  05:41           0        1.96       0.068
  WS02006248           JUNCTION      0.00   366.24     0  05:00           0        1.95      -0.120
  WS02006249           JUNCTION      0.00   426.30     0  03:20           0        1.98       0.184
  WS02006239           JUNCTION      0.00   348.83     0  05:42           0        2.06      -0.027
  WS02006251           JUNCTION      0.08   426.57     0  03:20     0.00217        2.02      -0.030
  WS02006252           JUNCTION      0.00   399.63     0  03:20           0        1.56       0.010
  WS02006253           JUNCTION      1.99   126.85     0  02:59     0.00928       0.458      -0.034
  WS02006256           JUNCTION      0.00   983.00     0  02:10           0        9.51      -0.001
  WS02004138           JUNCTION      0.00   380.00     0  00:00           0        9.92       0.065
  WS02004139           JUNCTION      0.32   394.45     0  00:00     0.00905        9.92       0.455
  WS02004407           JUNCTION      0.00   828.15     0  03:04           0        7.74       0.057
  WS02006228           JUNCTION      0.00   819.06     0  03:02           0        7.81       0.102
  WS02006229           JUNCTION      0.00   823.06     0  03:02           0        7.82       0.131
  WS02006280           JUNCTION      0.00   413.60     0  03:02           0        2.17       0.005
  WS02006284           JUNCTION      0.10   413.55     0  03:02      0.0027        2.17       0.041
  WS02006287           JUNCTION      0.00   413.21     0  03:01           0        2.17       0.033
  WSF200               JUNCTION      0.00   819.04     0  03:06           0        7.64       0.039
  HS02004901           JUNCTION     20.36    20.36     0  03:01      0.0901      0.0904       1.990
  HS02004881           JUNCTION      7.95    84.20     0  03:01      0.0378        0.41       0.085
  HS02004876           JUNCTION     14.96    76.75     0  03:01      0.0728       0.373       0.148
  HS02004870           JUNCTION     14.89    62.15     0  03:01      0.0716         0.3       0.037
  HS02004862           JUNCTION     15.28    47.68     0  03:01      0.0788       0.229       0.077
  HS02004856           JUNCTION     11.18    32.73     0  03:01      0.0539       0.152       0.963
  HS02004852           JUNCTION      0.00    21.94     0  03:01           0      0.0979       0.059
  HS02004848           JUNCTION     34.61    34.61     0  03:01       0.174       0.174       0.028
  HS02004842           JUNCTION      0.00    12.41     0  03:01           0      0.0895      16.999
  HS02004837           JUNCTION     31.84    43.95     0  03:01       0.303        0.38       0.214
  HS02004830           JUNCTION      0.15    43.86     0  03:01     0.00423        0.37       0.334
  HS02004824           JUNCTION     42.39    85.90     0  03:01       0.225       0.594       0.091
  HS02004817           JUNCTION      0.60    86.29     0  03:01      0.0169        0.61       2.809
  HS02004807           JUNCTION     27.35   112.32     0  03:01       0.131       0.726       0.604
  HS02004802           JUNCTION      0.00   111.36     0  03:01           0       0.723       0.549
  HS02004799           JUNCTION     22.08   258.94     0  03:01       0.107        1.24       0.223
  HS02004792           JUNCTION    102.90   238.00     0  03:01        0.47        1.14       0.036
  HS02004788           JUNCTION     34.16   135.94     0  03:01       0.199       0.669       0.058
  HS02004785           JUNCTION      0.15   103.52     0  03:01     0.00423       0.471       0.106
  HS02004777           JUNCTION      0.03   104.16     0  03:01    0.000846       0.472       1.115
  HS02004770           JUNCTION     85.35   105.11     0  03:01       0.385       0.473       0.659
  HS02004480           JUNCTION      0.00   302.42     0  03:01           0        1.46       0.077
  HS02004479           JUNCTION      0.00    44.88     0  03:02           0       0.232       0.317
  HS02004478           JUNCTION      0.00   413.07     0  03:01           0        2.17       0.014
  YS02001745           JUNCTION    336.84   390.37     0  02:26        2.69         2.7       0.424
  YS02001748           JUNCTION      0.04   563.15     0  02:27     0.00127        2.69       0.791
  YS02001751           JUNCTION      0.01   368.11     0  02:17     0.00031        2.65       0.906
  YS02001754           JUNCTION      0.26   342.20     0  03:00     0.00733        2.64       0.943
  YS02001762           JUNCTION      0.00   292.02     0  02:38           0        1.82       1.183
  YS02001765           JUNCTION      0.00   291.53     0  02:38           0        1.82       1.343
  YS02001767           JUNCTION      0.54   291.84     0  02:38      0.0151        1.85       1.961
  YS02001770           JUNCTION    415.94   565.34     0  03:01        3.01         3.6       0.871
  YS02001774           JUNCTION      0.00   565.92     0  03:01           0        2.32       1.084
  YS02001779           JUNCTION      0.01   565.40     0  03:01    0.000141        2.29       0.665
  YS02001882           JUNCTION      0.00    19.27     0  02:43           0      0.0172      15.945
  YS02001884           JUNCTION      0.00    34.80     0  02:43           0      0.0541      13.091
  YS02001759           JUNCTION    399.49   573.52     0  02:38        2.78        3.98       0.580
  YS02001887           JUNCTION    494.68   494.89     0  03:01        3.19        3.22       0.264
  YS02001890           JUNCTION      0.00   494.61     0  03:01           0        3.18       0.295
  YS02001898           JUNCTION      0.00   494.58     0  03:00           0        3.16       0.100
  YS02001901           JUNCTION      0.00   495.08     0  03:01           0        3.16       0.227
  YS02001904           JUNCTION      0.00   495.24     0  03:01           0        3.16       0.202
  YS02001907           JUNCTION      0.00   949.55     0  03:01           0        7.02       0.344
  YS02001910           JUNCTION      0.00   502.62     0  02:49           0        3.87       0.307
  YS02001915           JUNCTION    296.36   502.36     0  02:49        2.25         3.9       0.161
  YS02001918           JUNCTION      0.00   254.48     0  02:49           0        1.67       0.116
  YS02001619           JUNCTION    290.53   290.53     0  03:01        2.24        2.24       0.548
  YS02001629           JUNCTION      0.00   214.63     0  02:17           0        1.69       1.738
  YS02001641           JUNCTION      0.00   399.25     0  02:35           0        4.25       0.498
  YS02001644           JUNCTION    321.01  1353.04     0  03:01        2.59        10.9       0.243
  YS02001652           JUNCTION      0.00   377.77     0  03:01           0        2.35       1.023
  YS02001655           JUNCTION      0.15   399.13     0  02:18     0.00434        2.37       1.009
  YS02001920           JUNCTION      2.87   253.73     0  02:49      0.0809        1.66       0.179
  YS02001923           JUNCTION      0.04   302.33     0  02:49     0.00106        1.57       0.036
  YS02001926           JUNCTION      0.05   233.25     0  02:49     0.00147        1.56       0.196
  YS02001929           JUNCTION    151.13   151.13     0  03:01        1.56        1.56       0.037
  YS02001658           JUNCTION      0.00   600.55     0  02:23           0        2.41       0.916
  YS02001661           JUNCTION      0.00   647.46     0  02:38           0        2.65      -0.361
  YS02001664           JUNCTION    361.21   361.21     0  03:01        2.38        2.63       0.249
  YS02001622           JUNCTION      0.00   291.31     0  03:01           0        2.22       1.453
  YS02001633           JUNCTION    326.74   397.45     0  02:35        2.66        4.31       0.750
  YS02001649           JUNCTION      0.00   831.70     0  02:35           0        6.34       0.593
  YS02001757           JUNCTION      0.00  1579.41     0  02:35           0        8.31       1.124
  YS02001895           JUNCTION      0.00   494.93     0  03:01           0        3.17       0.166
  YS02001625           JUNCTION      0.00   290.83     0  03:01           0        2.19       1.805
  YS02163301           JUNCTION      0.00   199.30     0  02:26           0        1.67       1.455
  YS02163601           JUNCTION      0.11   397.91     0  02:35      0.0031        4.27       0.708
  YS02164001           JUNCTION      0.00   398.24     0  02:35           0        4.25       0.470
  YS02001647           JUNCTION      0.00   670.64     0  03:11           0        5.58       0.506
  YSB1154              JUNCTION     26.18    26.18     0  03:01       0.129        0.13       1.130
  YSB6556              JUNCTION      0.00    25.82     0  03:01           0        0.13       0.969
  YSB1174              JUNCTION     20.52    20.52     0  03:01      0.0948      0.0952       1.368
  YSB1171              JUNCTION      0.00    45.30     0  03:01           0       0.231       2.821
  YS02006553           JUNCTION      0.00   703.52     0  03:31           0        6.58       0.238
  YS02006561           JUNCTION      0.00   981.29     0  03:19           0        9.45       0.005
  YS02006556           JUNCTION      0.00   703.44     0  03:31           0        6.58       0.169
  YS02006558           JUNCTION    433.40   982.50     0  03:19        2.93        9.49       0.057
  YS02001783           JUNCTION      0.00   981.99     0  03:19           0        9.45       0.026
  YS02001784           JUNCTION      1.06   982.41     0  03:19      0.0299        9.48       0.037
  YS02001786           JUNCTION      0.06   982.31     0  03:18     0.00159        9.48       0.034
  YS02001788           JUNCTION      0.07   982.78     0  03:19       0.002        9.48       0.024
  YS02001790           JUNCTION      0.15   982.56     0  03:19     0.00437        9.48       0.001
  YS02001791           JUNCTION      0.00   982.48     0  03:18           0        9.48       0.008
  YS02001793           JUNCTION      0.00   982.96     0  03:19           0        9.48      -0.009
  WSC                  OUTFALL       0.00  1200.60     0  03:09           0          18       0.000
  JK-storage           STORAGE       0.00  1001.29     0  02:41           0        9.63     -10.995
  CC-storage           STORAGE       0.00  1578.99     0  02:35           0        5.61       1.177
  XR-storage           STORAGE     844.76   844.76     0  03:01        11.8        12.4      -0.004
  
  
  **********************
  Node Surcharge Summary
  **********************
  
  Surcharging occurs when water rises above the top of the highest conduit.
  ---------------------------------------------------------------------
                                               Max. Height   Min. Depth
                                   Hours       Above Crown    Below Rim
  Node                 Type      Surcharged         Meters       Meters
  ---------------------------------------------------------------------
  WS02004401           JUNCTION        0.16          0.134        1.526
  WS02004402           JUNCTION        0.18          0.135        1.605
  WS02004403           JUNCTION        0.19          0.123        1.907
  WS02004404           JUNCTION        0.62          0.174        2.606
  WS02004406           JUNCTION        0.35          0.116        2.334
  WS02004405           JUNCTION        0.42          0.154        2.646
  WS02006109           JUNCTION        2.16          0.479        1.341
  WS02006110           JUNCTION        1.13          0.234        1.616
  WS02006112           JUNCTION        1.43          0.414        1.266
  WS02006115           JUNCTION        0.10          0.082        2.168
  WS02006116           JUNCTION        0.12          0.085        2.205
  WS02006230           JUNCTION        0.56          0.433        1.137
  WS02006231           JUNCTION        0.80          0.502        1.028
  WS02006232           JUNCTION        1.91          0.657        0.823
  WS02006234           JUNCTION        1.15          0.593        0.647
  WS02006235           JUNCTION        1.46          0.655        0.635
  WS02006238           JUNCTION        1.53          0.666        0.764
  WS02006240           JUNCTION        0.81          0.569        0.821
  WS02006242           JUNCTION        0.83          0.629        0.191
  WS02006243           JUNCTION        0.62          0.579        0.191
  WS02006245           JUNCTION        0.54          0.567        0.283
  WS02006247           JUNCTION        0.53          0.545        0.215
  WS02006248           JUNCTION        0.43          0.380        0.000
  WS02006249           JUNCTION        0.45          0.390        0.000
  WS02006239           JUNCTION        0.99          0.605        0.685
  WS02006251           JUNCTION        0.12          0.502        0.678
  WS02006252           JUNCTION        0.54          0.666        0.434
  WS02006253           JUNCTION        0.14          0.473        2.007
  WS02006256           JUNCTION        6.83          2.050        0.000
  WS02006228           JUNCTION        2.13          0.599        1.601
  YS02001748           JUNCTION        5.30          1.190        0.000
  YS02001751           JUNCTION        5.49          1.131        0.069
  YS02001754           JUNCTION        5.69          1.060        0.090
  YS02001762           JUNCTION        5.87          1.078        0.072
  YS02001765           JUNCTION        5.84          1.012        0.088
  YS02001767           JUNCTION        5.81          0.981        0.049
  YS02001770           JUNCTION        5.80          0.920        0.000
  YS02001774           JUNCTION        5.86          1.009        0.041
  YS02001779           JUNCTION        5.67          0.680        0.000
  YS02001882           JUNCTION        0.84          0.636        0.194
  YS02001884           JUNCTION        0.87          0.667        0.203
  YS02001759           JUNCTION        5.89          1.103        0.107
  YS02001887           JUNCTION        0.96          0.749        0.201
  YS02001890           JUNCTION        1.00          0.760        0.000
  YS02001898           JUNCTION        0.79          0.540        0.200
  YS02001901           JUNCTION        0.92          0.681        0.189
  YS02001904           JUNCTION        0.89          0.642        0.208
  YS02001907           JUNCTION        1.78          0.950        0.000
  YS02001910           JUNCTION        1.05          0.784        0.316
  YS02001915           JUNCTION        0.82          0.605        0.395
  YS02001918           JUNCTION        0.65          0.296        0.514
  YS02001619           JUNCTION        5.47          0.594        0.016
  YS02001629           JUNCTION        5.48          0.470        0.000
  YS02001641           JUNCTION        5.85          0.936        0.164
  YS02001644           JUNCTION        5.85          0.920        0.000
  YS02001652           JUNCTION        5.74          1.130        0.000
  YS02001655           JUNCTION        5.50          1.200        0.000
  YS02001920           JUNCTION        0.68          0.382        0.758
  YS02001658           JUNCTION        5.34          1.300        0.000
  YS02001661           JUNCTION        0.14          1.390        0.000
  YS02001622           JUNCTION        5.50          0.585        0.035
  YS02001633           JUNCTION        5.83          0.926        0.134
  YS02001649           JUNCTION        5.87          1.050        0.000
  YS02001757           JUNCTION        5.98          1.210        0.000
  YS02001895           JUNCTION        0.80          0.567        0.183
  YS02001625           JUNCTION        5.76          0.780        0.000
  YS02163301           JUNCTION        5.81          0.883        0.147
  YS02163601           JUNCTION        5.87          0.987        0.093
  YS02164001           JUNCTION        5.84          0.922        0.178
  YS02001647           JUNCTION        5.75          0.803        0.097
  YS02006553           JUNCTION        1.88          0.966        0.224
  YS02006561           JUNCTION        0.71          0.298        0.852
  YS02006556           JUNCTION        1.30          0.883        0.467
  YS02006558           JUNCTION        1.26          0.862        0.538
  YS02001783           JUNCTION        0.98          0.690        0.910
  YS02001784           JUNCTION        0.93          0.813        0.677
  YS02001786           JUNCTION        0.83          0.933        0.497
  YS02001788           JUNCTION        0.77          0.921        0.559
  YS02001790           JUNCTION        1.74          0.992        0.165
  YS02001791           JUNCTION        1.85          0.873        1.047
  YS02001793           JUNCTION        2.16          0.986        1.614
  
  
  *********************
  Node Flooding Summary
  *********************
  
  Flooding refers to all water that overflows a node, whether it ponds or not.
  --------------------------------------------------------------------------
                                                             Total   Maximum
                                 Maximum   Time of Max       Flood    Ponded
                        Hours       Rate    Occurrence      Volume     Depth
  Node                 Flooded       LPS   days hr:min    10^6 ltr    Meters
  --------------------------------------------------------------------------
  WS02006248              0.01     18.41      0  02:59       0.000     0.000
  WS02006249              0.12    130.50      0  03:20       0.027     0.000
  WS02006256              3.68    810.00      0  03:02       6.078     0.000
  YS02001748              0.01    147.80      0  02:28       0.000     0.000
  YS02001770              0.01      5.56      0  02:28       0.000     0.000
  YS02001779              3.02    565.21      0  03:01       2.273     0.000
  YS02001890              0.01     15.01      0  02:47       0.000     0.000
  YS02001907              0.54    411.76      0  03:01       0.431     0.000
  YS02001629              0.01      9.70      0  02:27       0.000     0.000
  YS02001644              5.09   1353.00      0  03:01       9.461     0.000
  YS02001652              0.01     16.30      0  02:40       0.000     0.000
  YS02001655              0.01    215.27      0  02:20       0.000     0.000
  YS02001658              0.01     11.15      0  02:40       0.000     0.000
  YS02001661              0.01    156.68      0  02:40       0.000     0.000
  YS02001649              0.02     39.87      0  02:40       0.001     0.000
  YS02001757              0.01     16.36      0  02:28       0.000     0.000
  YS02001625              1.20    236.10      0  03:01       0.465     0.000
  JK-storage              0.90    964.97      0  02:49       1.200     0.000
  XR-storage              3.05    464.71      0  03:01       1.876     0.000
  
  
  **********************
  Storage Volume Summary
  **********************
  
  --------------------------------------------------------------------------------------------------
                         Average     Avg  Evap Exfil       Maximum     Max    Time of Max    Maximum
                          Volume    Pcnt  Pcnt  Pcnt        Volume    Pcnt     Occurrence    Outflow
  Storage Unit           1000 m3    Full  Loss  Loss       1000 m3    Full    days hr:min        LPS
  --------------------------------------------------------------------------------------------------
  JK-storage               0.128      44     0     0         0.291     100       0  02:01     983.00
  CC-storage               3.179      20     0     0         3.958      25       0  03:11     399.63
  XR-storage               0.770      83     0     0         0.926     100       0  02:55     380.00
  
  
  ***********************
  Outfall Loading Summary
  ***********************
  
  ---------------------------------------------------------------------------------------------------------------------------------
                         Flow       Avg       Max       Total         Total         Total         Total         Total         Total
                         Freq      Flow      Flow      Volume           COD            SS            TN            TP         NH4-N
  Outfall Node           Pcnt       LPS       LPS    10^6 ltr            kg            kg            kg            kg            kg
  ---------------------------------------------------------------------------------------------------------------------------------
  WSC                  100.00    718.34   1200.60      17.982      2168.373      3688.859       147.948        17.603        90.033
  ---------------------------------------------------------------------------------------------------------------------------------
  System               100.00    718.34   1200.60      17.982      2168.373      3688.859       147.948        17.603        90.033
  
  
  ********************
  Link Flow Summary
  ********************
  
  -----------------------------------------------------------------------------
                                 Maximum  Time of Max   Maximum    Max/    Max/
                                  |Flow|   Occurrence   |Veloc|    Full    Full
  Link                 Type          LPS  days hr:min     m/sec    Flow   Depth
  -----------------------------------------------------------------------------
  WS02003066WSF200     CONDUIT    819.04     0  03:06      2.93    0.14    0.30
  WS02006287WS02006284 CONDUIT    413.45     0  03:02      2.04    0.19    0.30
  WS02006284WS02006280 CONDUIT    413.60     0  03:02      2.28    0.17    0.28
  WS02006280WS02006229 CONDUIT    413.60     0  03:02      3.65    0.09    0.25
  WS02006229WS02006228 CONDUIT    819.06     0  03:02      1.63    2.71    1.00
  WS02006256WS02006235 CONDUIT    264.10     0  00:42      3.74    2.80    1.00
  WS02006253WS02006251 CONDUIT    113.44     0  03:00      0.60    0.34    1.00
  WS02006252WS02006251 CONDUIT    399.88     0  03:20      3.18    1.47    1.00
  WS02006251WS02006249 CONDUIT    426.30     0  03:20      1.11    1.23    1.00
  WS02006249WS02006248 CONDUIT    366.24     0  05:00      1.14    2.01    1.00
  WS02006248WS02006247 CONDUIT    360.00     0  05:41      1.08    0.78    1.00
  WS02006247WS02006245 CONDUIT    357.71     0  05:41      1.03    2.84    1.00
  WS02006245WS02006243 CONDUIT    357.76     0  05:41      1.04    1.06    1.00
  WS02006243WS02006242 CONDUIT    356.03     0  05:41      0.98    0.76    1.00
  WS02006242WS02006240 CONDUIT    352.00     0  05:41      0.95    1.40    1.00
  WS02006240WS02006239 CONDUIT    348.83     0  05:42      0.99    1.10    1.00
  WS02006239WS02006238 CONDUIT    347.36     0  05:42      0.94    1.11    1.00
  WS02006238WS02006235 CONDUIT    346.87     0  05:42      1.05    0.77    1.00
  WS02006235WS02006234 CONDUIT    507.56     0  05:04      1.32    5.36    1.00
  WS02006234WS02006232 CONDUIT    507.58     0  05:04      1.32    1.03    1.00
  WS02006232WS02006231 CONDUIT    507.58     0  05:04      1.32    1.06    1.00
  WS02006231WS02006230 CONDUIT    507.53     0  05:04      1.40    7.70    1.00
  WS02006230WS02006229 CONDUIT    518.59     0  05:05      1.35   11.54    1.00
  WS02006228WS02006109 CONDUIT    819.03     0  03:02      1.63    3.58    1.00
  WS02006116WS02004401 CONDUIT    827.25     0  03:04      1.05    1.14    1.00
  WS02006115WS02006116 CONDUIT    827.12     0  03:04      1.05    1.06    1.00
  WS02006113WS02006111 CONDUIT    813.16     0  03:03      2.62    0.97    0.81
  WS02006112WS02006115 CONDUIT    826.53     0  03:04      1.05    0.49    1.00
  WS02006111WS02006112 CONDUIT    815.53     0  03:04      1.75    0.39    0.90
  WS02006110WS02006113 CONDUIT    820.28     0  03:02      1.76    0.75    0.90
  WS02006109WS02006110 CONDUIT    820.45     0  03:02      1.63    1.58    1.00
  WS02004411WS02004412 CONDUIT    817.87     0  03:05      1.15    1.16    0.85
  WS02004401WS02004402 CONDUIT    827.39     0  03:04      1.05    0.99    1.00
  WS02004413WS02003067 CONDUIT    818.06     0  03:06      1.41    0.35    0.69
  WS02004412WS02004413 CONDUIT    817.77     0  03:06      1.09    0.55    0.91
  WS02004410WS02004411 CONDUIT    818.83     0  03:05      1.14    1.12    0.86
  WS02004409WS02004410 CONDUIT    821.60     0  03:04      1.15    1.06    0.86
  WS02004407WS02004409 CONDUIT    826.82     0  03:04      1.66    0.29    0.62
  WS02004406WS02004407 CONDUIT    828.15     0  03:04      1.44    0.37    0.69
  WS02004405WS02004406 CONDUIT    827.36     0  03:04      1.05    1.63    1.00
  WS02004404WS02004405 CONDUIT    827.47     0  03:04      1.05    8.11    1.00
  WS02004403WS02004404 CONDUIT    827.39     0  03:04      1.05    0.60    1.00
  WS02004402WS02004403 CONDUIT    827.46     0  03:04      1.05    1.19    1.00
  WS02004139WS02001211 CONDUIT    383.60     0  03:14      0.90    0.48    0.62
  WS02004138WS02004139 CONDUIT    394.13     0  00:00      3.62    0.08    0.46
  WS02003067WS02003066 CONDUIT    818.80     0  03:06      1.53    0.26    0.48
  WS02001213WS02003059 CONDUIT    401.02     0  03:14      0.89    0.66    0.84
  WS02001212WS02001213 CONDUIT    397.15     0  03:14      1.32    0.61    0.52
  WS02001211WS02001212 CONDUIT    394.21     0  03:14      0.78    0.30    0.69
  WS02003072WS02003073 CONDUIT   1197.69     0  03:08      1.88    2.59    0.55
  WS02003069WS02003072 CONDUIT   1197.21     0  03:08      1.76    0.58    0.58
  WS02003060WS02003069 CONDUIT   1196.88     0  03:07      1.98    0.47    0.53
  WS02003059WS02003060 CONDUIT    406.07     0  03:13      0.95    0.27    0.73
  HS02004901HS02004770 CONDUIT     20.51     0  03:01      0.07    0.08    0.42
  HS02004876HS02004881 CONDUIT     76.54     0  03:01      0.95    0.81    0.12
  HS02004870HS02004876 CONDUIT     61.90     0  03:01      0.65    0.04    0.14
  HS02004842HS02004848 CONDUIT     12.41     0  03:01      0.06    0.01    0.31
  HS02004837HS02004842 CONDUIT     12.97     0  03:02      0.42    0.01    0.32
  HS02004830HS02004837 CONDUIT     43.71     0  03:01      0.57    0.04    0.11
  HS02004824HS02004830 CONDUIT     43.67     0  03:01      0.59    0.06    0.11
  HS02004817HS02004824 CONDUIT     85.69     0  03:01      0.26    0.04    0.48
  HS02004770HS02004777 CONDUIT    104.13     0  03:01      0.35    0.19    0.43
  HS02004799HS02004480 CONDUIT    258.28     0  03:01      0.83    0.33    0.44
  HS02004792HS02004799 CONDUIT    237.05     0  03:01      0.95    0.15    0.36
  HS02004788HS02004792 CONDUIT    135.42     0  03:01      1.06    0.09    0.18
  HS02004785HS02004788 CONDUIT    103.22     0  03:02      0.71    0.78    0.21
  HS02004777HS02004785 CONDUIT    103.37     0  03:01      0.42    0.13    0.35
  HS02004480HS02004478 CONDUIT    302.27     0  03:01      1.26    1.27    0.34
  HS02004479HS02004480 CONDUIT     46.26     0  03:02      0.32    0.04    0.43
  HS02004862HS02004870 CONDUIT     47.43     0  03:01      0.66    0.05    0.10
  HS02004848HS02004852 CONDUIT     21.94     0  03:01      0.45    0.02    0.07
  HS02004856HS02004862 CONDUIT     32.47     0  03:01      0.48    0.03    0.10
  HS02004852HS02004856 CONDUIT     21.85     0  03:02      0.25    0.02    0.13
  HS02004802HS02004478 CONDUIT    111.51     0  03:02      0.45    0.10    0.36
  HS02004478WS02006287 CONDUIT    413.21     0  03:01      1.75    0.12    0.26
  HS02004817HS02004807 CONDUIT     86.12     0  03:01      0.19    0.05    0.63
  HS02004807HS02004802 CONDUIT    111.36     0  03:01      0.38    0.21    0.42
  YS02001759YS02001757 CONDUIT    573.37     0  02:38      0.73    0.41    1.00
  YS02001762YS02001759 CONDUIT    291.72     0  02:38      0.37    0.34    1.00
  YS02001765YS02001762 CONDUIT    292.02     0  02:38      0.37    0.27    1.00
  YS02001770YS02001767 CONDUIT    291.31     0  02:38      0.37    1.15    1.00
  YS02001774YS02001770 CONDUIT    565.92     0  03:01      0.72    0.36    1.00
  YS02001779YS02001774 CONDUIT    565.39     0  03:01      0.72    0.28    1.00
  YS02001649YS02001757 CONDUIT    831.56     0  02:35      1.06    0.50    1.00
  YS02001767YS02001765 CONDUIT    291.53     0  02:38      0.37    0.37    1.00
  YS02006561YS02001783 CONDUIT    981.99     0  03:19      2.21    0.51    1.00
  YS02001783YS02001784 CONDUIT    981.35     0  03:19      1.95    1.35    1.00
  YS02001784YS02001785 CONDUIT    982.25     0  03:18      1.95    2.29    1.00
  YS02001788YS02001790 CONDUIT    982.40     0  03:19      2.46    0.72    1.00
  YS02001790YS02001791 CONDUIT    982.48     0  03:18      3.07    1.07    1.00
  YS02001791YS02001793 CONDUIT    982.96     0  03:19      6.12    0.42    1.00
  YS02001910YS02001907 CONDUIT    503.18     0  02:49      0.64    0.28    1.00
  YS02001786YS02001788 CONDUIT    982.71     0  03:19      2.34    1.89    1.00
  YS02001915YS02001910 CONDUIT    502.62     0  02:49      0.64    0.25    1.00
  YS02001918YS02001915 CONDUIT    256.70     0  02:49      0.44    0.14    1.00
  YS02001923YS02001920 CONDUIT    250.86     0  02:49      0.72    0.11    1.00
  YS02001926YS02001923 CONDUIT    302.30     0  02:49      0.83    0.43    0.92
  YS02001929YS02001926 CONDUIT    233.19     0  02:49      0.89    0.11    0.84
  YS02001920YS02001918 CONDUIT    254.48     0  02:49      0.69    0.25    1.00
  YS02001629YS02163301 CONDUIT    199.30     0  02:26      0.25    0.25    1.00
  YS02001619YS02001622 CONDUIT    291.31     0  03:01      0.61    0.43    1.00
  YS02001622YS02001625 CONDUIT    290.83     0  03:01      0.37    0.16    1.00
  YS02001625YS02001629 CONDUIT    214.63     0  02:17      0.28    0.10    1.00
  YS02163301YS02001633 CONDUIT    200.58     0  02:26      0.26    0.19    1.00
  YS02163601YS02164001 CONDUIT    398.24     0  02:35      0.51    0.35    1.00
  YS02164001YS02001641 CONDUIT    399.25     0  02:35      0.51    0.55    1.00
  YS02001641YS02001644 CONDUIT    399.37     0  02:35      0.51    1.29    1.00
  YS02001647YS02001649 CONDUIT    670.64     0  03:11      0.85    0.35    1.00
  YS02006553YS02006556 CONDUIT    703.44     0  03:31      0.90    0.60    1.00
  YS02006556YS02006558 CONDUIT    704.81     0  03:31      0.90    0.56    1.00
  YSB6556YSB1171       CONDUIT     25.73     0  03:03      0.09    0.03    0.70
  YS02001907YS02006553 CONDUIT    703.52     0  03:31      0.78    0.83    1.00
  YS02006558YS02006561 CONDUIT    981.29     0  03:19      3.57    2.17    1.00
  YS02001633YS02163601 CONDUIT    397.80     0  02:35      0.51    0.42    1.00
  YS02001644YS02001647 CONDUIT    670.66     0  03:11      0.85    0.39    1.00
  YS02001745YS02001748 CONDUIT    563.11     0  02:27      1.47    0.22    0.96
  YS02001748YS02001751 CONDUIT    368.10     0  02:17      1.06    0.19    1.00
  YS02001751YS02001754 CONDUIT    341.94     0  03:00      0.92    0.16    1.00
  YS02001754YS02001757 CONDUIT    341.49     0  03:00      0.43    0.14    1.00
  YS02001882YS02001884 CONDUIT     19.27     0  02:43      0.13    0.02    1.00
  YS02001884YS02001887 CONDUIT     34.80     0  02:43      0.09    0.05    1.00
  YS02001890YS02001895 CONDUIT    494.93     0  03:01      0.63    0.23    1.00
  YS02001895YS02001898 CONDUIT    494.58     0  03:00      0.63    0.86    1.00
  YS02001898YS02001901 CONDUIT    495.08     0  03:01      0.63    0.32    1.00
  YS02001901YS02001904 CONDUIT    495.24     0  03:01      0.63    0.77    1.00
  YS02001904YS02001907 CONDUIT    494.88     0  03:01      0.63    0.17    1.00
  YS02001887YS02001890 CONDUIT    494.61     0  03:01      0.63    0.85    1.00
  YS02001652YS02001649 CONDUIT    377.79     0  03:01      0.63    0.19    1.00
  YS02001655YS02001652 CONDUIT    377.77     0  03:01      0.98    0.18    1.00
  YS02001658YS02001655 CONDUIT    398.98     0  02:18      1.22    0.17    1.00
  YS02001661YS02001658 CONDUIT    600.55     0  02:23      1.55    0.24    1.00
  YS02001664YS02001661 CONDUIT    647.46     0  02:38      1.43    0.20    0.76
  YSB1154YSB6556       CONDUIT     25.82     0  03:01      0.17    0.05    0.59
  YSB1174YSB1171       CONDUIT     20.15     0  03:01      0.07    0.03    0.70
  YSB1171HS02004479    CONDUIT     44.88     0  03:02      0.54    0.03    0.55
  HS02004881HS02006253 CONDUIT     84.15     0  03:01      2.17    0.02    0.53
  YS02001793JiankangQianchi CONDUIT   1001.29     0  02:41     18.35    0.08    1.00
  YS02001757CaochengTiaoxuchi CONDUIT   1578.99     0  02:35      2.02    0.69    1.00
  WSF200WS02003060     CONDUIT    819.71     0  03:06      1.86    0.18    0.41
  1                    CONDUIT   1200.60     0  03:09      3.49    0.42    0.45
  CC-Pump-1            PUMP       200.00     0  05:00              1.00
  CC-Pump-2            PUMP       199.81     0  03:20              1.00
  JK-Pump-1            PUMP       300.00     0  02:10              1.00
  JK-Pump-2            PUMP       683.00     0  02:10              1.00
  XR-Pump-1            PUMP        95.00     0  00:00              1.00
  XR-Pump-2            PUMP        95.00     0  00:00              1.00
  XR-Pump-3            PUMP        95.00     0  00:00              1.00
  XR-Pump-4            PUMP        95.00     0  00:00              1.00
  
  
  ***************************
  Flow Classification Summary
  ***************************
  
  -------------------------------------------------------------------------------------
                      Adjusted    ---------- Fraction of Time in Flow Class ---------- 
                       /Actual         Up    Down  Sub   Sup   Up    Down  Norm  Inlet 
  Conduit               Length    Dry  Dry   Dry   Crit  Crit  Crit  Crit  Ltd   Ctrl  
  -------------------------------------------------------------------------------------
  WS02003066WSF200        1.00   0.01  0.06  0.00  0.00  0.93  0.00  0.00  0.59  0.00
  WS02006287WS02006284    1.00   0.03  0.02  0.00  0.58  0.37  0.00  0.00  0.62  0.00
  WS02006284WS02006280    1.00   0.04  0.00  0.00  0.00  0.00  0.00  0.96  0.00  0.00
  WS02006280WS02006229    1.00   0.04  0.00  0.00  0.00  0.02  0.00  0.94  0.01  0.00
  WS02006229WS02006228    1.00   0.00  0.00  0.00  1.00  0.00  0.00  0.00  0.00  0.00
  WS02006256WS02006235    1.00   0.02  0.00  0.00  0.97  0.00  0.00  0.00  0.00  0.00
  WS02006253WS02006251    1.00   0.01  0.02  0.00  0.96  0.00  0.01  0.00  0.00  0.00
  WS02006252WS02006251    1.00   0.22  0.00  0.00  0.04  0.00  0.74  0.00  0.00  0.00
  WS02006251WS02006249    1.00   0.00  0.00  0.00  1.00  0.00  0.00  0.00  0.39  0.00
  WS02006249WS02006248    1.00   0.00  0.01  0.00  0.84  0.00  0.15  0.00  0.00  0.00
  WS02006248WS02006247    1.00   0.01  0.00  0.00  0.98  0.00  0.00  0.02  0.24  0.00
  WS02006247WS02006245    1.00   0.01  0.00  0.00  0.95  0.00  0.00  0.04  0.00  0.00
  WS02006245WS02006243    1.00   0.01  0.00  0.00  0.91  0.00  0.00  0.08  0.00  0.00
  WS02006243WS02006242    1.00   0.01  0.00  0.00  0.97  0.00  0.00  0.02  0.26  0.00
  WS02006242WS02006240    1.00   0.01  0.01  0.00  0.97  0.00  0.00  0.00  0.00  0.00
  WS02006240WS02006239    1.00   0.02  0.00  0.00  0.93  0.00  0.00  0.04  0.02  0.00
  WS02006239WS02006238    1.00   0.02  0.00  0.00  0.98  0.00  0.00  0.00  0.05  0.00
  WS02006238WS02006235    1.00   0.02  0.00  0.00  0.98  0.00  0.00  0.00  0.00  0.00
  WS02006235WS02006234    1.00   0.02  0.00  0.00  0.95  0.00  0.02  0.00  0.00  0.00
  WS02006234WS02006232    1.00   0.02  0.00  0.00  0.97  0.00  0.00  0.00  0.01  0.00
  WS02006232WS02006231    1.00   0.02  0.00  0.00  0.97  0.00  0.00  0.00  0.00  0.00
  WS02006231WS02006230    1.00   0.03  0.00  0.00  0.56  0.00  0.41  0.00  0.00  0.00
  WS02006230WS02006229    1.00   0.00  0.00  0.00  0.99  0.00  0.00  0.01  0.01  0.00
  WS02006228WS02006109    1.00   0.00  0.00  0.00  1.00  0.00  0.00  0.00  0.00  0.00
  WS02006116WS02004401    1.00   0.03  0.00  0.00  0.97  0.00  0.00  0.00  0.00  0.00
  WS02006115WS02006116    1.00   0.03  0.00  0.00  0.97  0.00  0.00  0.00  0.00  0.00
  WS02006113WS02006111    1.00   0.02  0.00  0.00  0.03  0.95  0.00  0.00  0.21  0.00
  WS02006112WS02006115    1.00   0.02  0.01  0.00  0.97  0.00  0.00  0.00  0.00  0.00
  WS02006111WS02006112    1.00   0.02  0.00  0.00  0.98  0.00  0.00  0.00  0.87  0.00
  WS02006110WS02006113    1.00   0.00  0.01  0.00  0.98  0.00  0.00  0.00  0.00  0.00
  WS02006109WS02006110    1.00   0.00  0.00  0.00  0.99  0.00  0.00  0.00  0.00  0.00
  WS02004411WS02004412    1.00   0.04  0.00  0.00  0.96  0.00  0.00  0.00  0.00  0.00
  WS02004401WS02004402    1.00   0.03  0.00  0.00  0.97  0.00  0.00  0.00  0.00  0.00
  WS02004413WS02003067    1.00   0.04  0.02  0.00  0.00  0.00  0.94  0.00  0.00  0.00
  WS02004412WS02004413    1.00   0.04  0.00  0.00  0.96  0.00  0.00  0.00  0.01  0.00
  WS02004410WS02004411    1.00   0.04  0.00  0.00  0.96  0.00  0.00  0.00  0.01  0.00
  WS02004409WS02004410    1.00   0.04  0.00  0.00  0.96  0.00  0.00  0.00  0.01  0.00
  WS02004407WS02004409    1.00   0.04  0.00  0.00  0.96  0.00  0.00  0.00  0.86  0.00
  WS02004406WS02004407    1.00   0.00  0.04  0.00  0.96  0.00  0.00  0.00  0.00  0.00
  WS02004405WS02004406    1.00   0.00  0.00  0.00  1.00  0.00  0.00  0.00  0.04  0.00
  WS02004404WS02004405    1.00   0.00  0.00  0.00  1.00  0.00  0.00  0.00  0.00  0.00
  WS02004403WS02004404    1.00   0.00  0.03  0.00  0.97  0.00  0.00  0.00  0.00  0.00
  WS02004402WS02004403    1.00   0.03  0.00  0.00  0.97  0.00  0.00  0.00  0.00  0.00
  WS02004139WS02001211    1.00   0.00  0.00  0.00  1.00  0.00  0.00  0.00  0.00  0.00
  WS02004138WS02004139    1.00   0.00  0.00  0.00  1.00  0.00  0.00  0.00  1.00  0.00
  WS02003067WS02003066    1.00   0.06  0.01  0.00  0.93  0.00  0.00  0.00  0.00  0.00
  WS02001213WS02003059    1.00   0.00  0.00  0.00  1.00  0.00  0.00  0.00  0.00  0.00
  WS02001212WS02001213    1.00   0.00  0.00  0.00  0.89  0.00  0.11  0.00  0.00  0.00
  WS02001211WS02001212    1.00   0.00  0.00  0.00  1.00  0.00  0.00  0.00  0.00  0.00
  WS02003072WS02003073    1.00   0.00  0.00  0.00  0.00  0.00  0.00  1.00  0.00  0.00
  WS02003069WS02003072    1.00   0.00  0.00  0.00  1.00  0.00  0.00  0.00  0.10  0.00
  WS02003060WS02003069    1.00   0.00  0.00  0.00  0.99  0.01  0.00  0.00  0.07  0.00
  WS02003059WS02003060    1.00   0.00  0.00  0.00  1.00  0.00  0.00  0.00  0.00  0.00
  HS02004901HS02004770    1.00   0.04  0.00  0.00  0.96  0.00  0.00  0.00  0.00  0.00
  HS02004876HS02004881    1.00   0.01  0.00  0.00  0.89  0.10  0.00  0.00  0.00  0.00
  HS02004870HS02004876    1.00   0.00  0.00  0.00  1.00  0.00  0.00  0.00  0.95  0.00
  HS02004842HS02004848    1.00   0.00  0.04  0.00  0.96  0.00  0.00  0.00  0.55  0.00
  HS02004837HS02004842    1.00   0.00  0.00  0.00  1.00  0.00  0.00  0.00  0.11  0.00
  HS02004830HS02004837    1.00   0.00  0.00  0.00  1.00  0.00  0.00  0.00  0.99  0.00
  HS02004824HS02004830    1.00   0.00  0.00  0.00  1.00  0.00  0.00  0.00  0.00  0.00
  HS02004817HS02004824    1.00   0.00  0.00  0.00  1.00  0.00  0.00  0.00  1.00  0.00
  HS02004770HS02004777    1.00   0.00  0.04  0.00  0.96  0.00  0.00  0.00  0.02  0.00
  HS02004799HS02004480    1.00   0.00  0.01  0.00  0.95  0.00  0.04  0.00  0.00  0.00
  HS02004792HS02004799    1.00   0.00  0.00  0.00  1.00  0.00  0.00  0.00  0.98  0.00
  HS02004788HS02004792    1.00   0.00  0.00  0.00  1.00  0.00  0.00  0.00  0.98  0.00
  HS02004785HS02004788    1.00   0.00  0.00  0.00  1.00  0.00  0.00  0.00  0.00  0.00
  HS02004777HS02004785    1.00   0.00  0.00  0.00  1.00  0.00  0.00  0.00  0.12  0.00
  HS02004480HS02004478    1.00   0.04  0.00  0.00  0.63  0.00  0.00  0.33  0.00  0.00
  HS02004479HS02004480    1.00   0.01  0.00  0.00  0.99  0.00  0.00  0.00  0.11  0.00
  HS02004862HS02004870    1.00   0.00  0.00  0.00  1.00  0.00  0.00  0.00  0.03  0.00
  HS02004848HS02004852    1.00   0.04  0.00  0.00  0.96  0.00  0.00  0.00  0.62  0.00
  HS02004856HS02004862    1.00   0.00  0.05  0.00  0.95  0.00  0.00  0.00  0.83  0.00
  HS02004852HS02004856    1.00   0.04  0.00  0.00  0.96  0.00  0.00  0.00  0.85  0.00
  HS02004802HS02004478    1.00   0.04  0.00  0.00  0.96  0.00  0.00  0.00  0.02  0.00
  HS02004478WS02006287    1.00   0.05  0.00  0.00  0.70  0.26  0.00  0.00  0.64  0.00
  HS02004817HS02004807    1.00   0.00  0.04  0.00  0.96  0.00  0.00  0.00  0.01  0.00
  HS02004807HS02004802    1.00   0.04  0.00  0.00  0.95  0.00  0.00  0.00  0.00  0.00
  YS02001759YS02001757    1.00   0.00  0.00  0.00  1.00  0.00  0.00  0.00  0.16  0.00
  YS02001762YS02001759    1.00   0.00  0.00  0.00  1.00  0.00  0.00  0.00  0.03  0.00
  YS02001765YS02001762    1.00   0.00  0.00  0.00  1.00  0.00  0.00  0.00  0.13  0.00
  YS02001770YS02001767    1.00   0.00  0.00  0.00  1.00  0.00  0.00  0.00  0.00  0.00
  YS02001774YS02001770    1.00   0.00  0.04  0.00  0.96  0.00  0.00  0.00  0.02  0.00
  YS02001779YS02001774    1.00   0.00  0.00  0.00  1.00  0.00  0.00  0.00  0.18  0.00
  YS02001649YS02001757    1.00   0.00  0.00  0.00  1.00  0.00  0.00  0.00  0.16  0.00
  YS02001767YS02001765    1.00   0.00  0.00  0.00  1.00  0.00  0.00  0.00  0.00  0.00
  YS02006561YS02001783    1.00   0.06  0.00  0.00  0.33  0.61  0.00  0.00  0.49  0.00
  YS02001783YS02001784    1.00   0.00  0.06  0.00  0.94  0.00  0.00  0.00  0.00  0.00
  YS02001784YS02001785    1.00   0.00  0.00  0.00  1.00  0.00  0.00  0.00  0.17  0.00
  YS02001788YS02001790    1.00   0.00  0.00  0.00  0.35  0.65  0.00  0.00  0.39  0.00
  YS02001790YS02001791    1.00   0.00  0.00  0.00  0.31  0.69  0.00  0.00  0.47  0.00
  YS02001791YS02001793    1.00   0.00  0.00  0.00  0.34  0.66  0.00  0.00  0.03  0.00
  YS02001910YS02001907    1.00   0.00  0.00  0.00  0.99  0.00  0.00  0.01  0.12  0.00
  YS02001786YS02001788    1.00   0.00  0.00  0.00  0.34  0.66  0.00  0.00  0.00  0.00
  YS02001915YS02001910    1.00   0.00  0.00  0.00  0.99  0.01  0.00  0.00  0.15  0.00
  YS02001918YS02001915    1.00   0.00  0.00  0.00  0.99  0.00  0.00  0.00  0.54  0.00
  YS02001923YS02001920    1.00   0.00  0.00  0.00  1.00  0.00  0.00  0.00  0.84  0.00
  YS02001926YS02001923    1.00   0.00  0.02  0.00  0.15  0.00  0.83  0.00  0.00  0.00
  YS02001929YS02001926    1.00   0.00  0.04  0.00  0.96  0.00  0.00  0.00  0.77  0.00
  YS02001920YS02001918    1.00   0.00  0.00  0.00  1.00  0.00  0.00  0.00  0.00  0.00
  YS02001629YS02163301    1.00   0.05  0.00  0.00  0.95  0.00  0.00  0.00  0.00  0.00
  YS02001619YS02001622    1.00   0.04  0.00  0.00  0.96  0.00  0.00  0.00  0.00  0.00
  YS02001622YS02001625    1.00   0.04  0.00  0.00  0.96  0.00  0.00  0.00  0.04  0.00
  YS02001625YS02001629    1.00   0.04  0.02  0.00  0.92  0.00  0.02  0.00  0.00  0.00
  YS02163301YS02001633    1.00   0.00  0.05  0.00  0.95  0.00  0.00  0.00  0.00  0.00
  YS02163601YS02164001    1.00   0.00  0.02  0.00  0.98  0.00  0.00  0.00  0.00  0.00
  YS02164001YS02001641    1.00   0.00  0.02  0.00  0.98  0.00  0.00  0.00  0.06  0.00
  YS02001641YS02001644    1.00   0.00  0.00  0.00  1.00  0.00  0.00  0.00  0.00  0.00
  YS02001647YS02001649    1.00   0.00  0.05  0.00  0.95  0.00  0.00  0.00  0.01  0.00
  YS02006553YS02006556    1.00   0.00  0.00  0.00  1.00  0.00  0.00  0.00  0.03  0.00
  YS02006556YS02006558    1.00   0.00  0.00  0.00  1.00  0.00  0.00  0.00  0.00  0.00
  YSB6556YSB1171          1.00   0.01  0.03  0.00  0.96  0.00  0.00  0.00  0.00  0.00
  YS02001907YS02006553    1.00   0.00  0.01  0.00  0.99  0.00  0.00  0.00  0.00  0.00
  YS02006558YS02006561    1.00   0.06  0.00  0.00  0.15  0.80  0.00  0.00  0.52  0.00
  YS02001633YS02163601    1.00   0.00  0.00  0.00  1.00  0.00  0.00  0.00  0.15  0.00
  YS02001644YS02001647    1.00   0.00  0.05  0.00  0.95  0.00  0.00  0.00  0.00  0.00
  YS02001745YS02001748    1.00   0.00  0.00  0.00  0.90  0.01  0.00  0.09  0.04  0.00
  YS02001748YS02001751    1.00   0.00  0.00  0.00  0.97  0.03  0.00  0.00  0.15  0.00
  YS02001751YS02001754    1.00   0.00  0.00  0.00  0.94  0.00  0.00  0.06  0.02  0.00
  YS02001754YS02001757    1.00   0.00  0.00  0.00  1.00  0.00  0.00  0.00  0.18  0.00
  YS02001882YS02001884    1.00   0.05  0.00  0.00  0.95  0.00  0.00  0.00  0.00  0.00
  YS02001884YS02001887    1.00   0.02  0.02  0.00  0.96  0.00  0.00  0.00  0.00  0.00
  YS02001890YS02001895    1.00   0.00  0.05  0.00  0.95  0.00  0.00  0.00  0.00  0.00
  YS02001895YS02001898    1.00   0.05  0.00  0.00  0.94  0.00  0.01  0.00  0.00  0.00
  YS02001898YS02001901    1.00   0.05  0.00  0.00  0.95  0.00  0.00  0.00  0.01  0.00
  YS02001901YS02001904    1.00   0.05  0.00  0.00  0.95  0.00  0.00  0.00  0.00  0.00
  YS02001904YS02001907    1.00   0.00  0.05  0.00  0.95  0.00  0.00  0.00  0.00  0.00
  YS02001887YS02001890    1.00   0.00  0.00  0.00  0.99  0.00  0.01  0.00  0.00  0.00
  YS02001652YS02001649    1.00   0.00  0.00  0.00  1.00  0.00  0.00  0.00  0.16  0.00
  YS02001655YS02001652    1.00   0.00  0.00  0.00  0.94  0.00  0.00  0.06  0.02  0.00
  YS02001658YS02001655    1.00   0.00  0.04  0.00  0.92  0.03  0.00  0.00  0.08  0.00
  YS02001661YS02001658    1.00   0.04  0.00  0.00  0.90  0.06  0.00  0.00  0.09  0.00
  YS02001664YS02001661    1.00   0.04  0.00  0.00  0.91  0.05  0.00  0.00  0.19  0.00
  YSB1154YSB6556          1.00   0.04  0.00  0.00  0.96  0.00  0.00  0.00  0.01  0.00
  YSB1174YSB1171          1.00   0.01  0.01  0.00  0.97  0.00  0.00  0.00  0.00  0.00
  YSB1171HS02004479       1.00   0.01  0.00  0.00  0.98  0.00  0.00  0.00  0.10  0.00
  HS02004881HS02006253    1.00   0.02  0.00  0.00  0.40  0.02  0.00  0.56  0.24  0.00
  YS02001793JiankangQianchi    1.00   0.00  0.00  0.00  0.63  0.37  0.00  0.00  0.40  0.00
  YS02001757CaochengTiaoxuchi    1.00   0.00  0.08  0.00  0.92  0.00  0.00  0.00  0.00  0.00
  WSF200WS02003060        1.00   0.00  0.01  0.00  0.97  0.01  0.00  0.00  0.56  0.00
  1                       1.00   0.00  0.00  0.00  0.00  1.00  0.00  0.00  0.52  0.00
  
  
  *************************
  Conduit Surcharge Summary
  *************************
  
  ----------------------------------------------------------------------------
                                                           Hours        Hours 
                         --------- Hours Full --------   Above Full   Capacity
  Conduit                Both Ends  Upstream  Dnstream   Normal Flow   Limited
  ----------------------------------------------------------------------------
  WS02006229WS02006228        2.13      2.19      2.13      3.51         2.13
  WS02006256WS02006235        5.09      5.09      6.83      4.12         0.01
  WS02006253WS02006251        0.41      0.41      0.43      0.01         0.02
  WS02006252WS02006251        0.24      0.24      0.54      0.37         0.01
  WS02006251WS02006249        0.41      0.41      0.45      0.13         0.06
  WS02006249WS02006248        0.43      0.43      0.45      1.03         0.01
  WS02006248WS02006247        0.46      0.46      0.53      0.01         0.01
  WS02006247WS02006245        0.54      0.55      0.54      1.77         0.50
  WS02006245WS02006243        0.56      0.56      0.62      0.04         0.01
  WS02006243WS02006242        0.65      0.65      0.83      0.01         0.01
  WS02006242WS02006240        0.81      0.81      0.97      0.40         0.01
  WS02006240WS02006239        0.83      0.83      0.99      0.07         0.04
  WS02006239WS02006238        1.27      1.27      1.53      0.08         0.05
  WS02006238WS02006235        1.52      1.52      1.65      0.01         0.01
  WS02006235WS02006234        1.15      1.15      1.46      4.96         0.01
  WS02006234WS02006232        1.34      1.34      1.91      0.07         0.11
  WS02006232WS02006231        0.80      0.80      1.91      0.21         0.01
[...]
  YS02001765YS02001762        5.84      5.84      5.87      0.01         0.01
  YS02001770YS02001767        5.81      5.81      5.81      0.19         0.65
  YS02001774YS02001770        5.80      5.80      5.86      0.01         0.01
  YS02001779YS02001774        5.67      5.67      5.86      0.01         0.01
  YS02001649YS02001757        5.87      5.87      5.98      0.01         0.01
  YS02001767YS02001765        5.81      5.81      5.84      0.01         0.01
  YS02006561YS02001783        0.71      0.71      0.98      0.01         0.01
  YS02001783YS02001784        0.93      0.98      0.93      1.41         0.93
  YS02001784YS02001785        0.83      0.93      0.83      2.40         0.82
  YS02001788YS02001790        0.77      0.77      1.74      0.01         0.01
  YS02001790YS02001791        1.73      1.74      1.85      0.83         0.79
  YS02001791YS02001793        1.85      1.85      2.26      0.01         0.01
  YS02001910YS02001907        1.05      1.05      1.78      0.01         0.01
  YS02001786YS02001788        0.77      0.83      0.77      1.98         0.77
  YS02001915YS02001910        0.82      0.82      1.05      0.01         0.01
  YS02001918YS02001915        0.65      0.65      0.82      0.01         0.01
  YS02001923YS02001920        0.41      0.41      0.68      0.01         0.01
  YS02001920YS02001918        0.65      0.65      0.68      0.01         0.01
  YS02001629YS02163301        5.80      5.80      5.81      0.01         0.01
  YS02001619YS02001622        5.47      5.47      5.50      0.01         0.01
  YS02001622YS02001625        5.50      5.50      5.76      0.01         0.01
  YS02001625YS02001629        5.48      5.48      5.76      0.01         0.01
  YS02163301YS02001633        5.81      5.81      5.84      0.01         0.01
  YS02163601YS02164001        5.84      5.84      5.87      0.01         0.01
  YS02164001YS02001641        5.84      5.84      5.85      0.01         0.04
  YS02001641YS02001644        5.85      5.85      5.85      1.53         1.52
  YS02001647YS02001649        5.75      5.75      5.87      0.01         0.01
  YS02006553YS02006556        1.30      1.30      1.88      0.01         0.01
  YS02006556YS02006558        1.54      1.54      1.95      0.01         0.01
  YS02001907YS02006553        2.43      2.43      2.67      0.01         0.01
  YS02006558YS02006561        0.80      1.26      0.80      2.23         0.80
  YS02001633YS02163601        5.83      5.83      5.87      0.01         0.01
  YS02001644YS02001647        5.75      5.75      5.85      0.01         0.01
  YS02001745YS02001748        0.01      0.01      5.30      0.01         0.01
  YS02001748YS02001751        5.35      5.35      5.49      0.01         0.01
  YS02001751YS02001754        5.49      5.49      5.69      0.01         0.01
  YS02001754YS02001757        5.74      5.74      5.98      0.01         0.01
  YS02001882YS02001884        0.84      0.84      0.87      0.01         0.01
  YS02001884YS02001887        0.93      0.93      0.96      0.01         0.01
  YS02001890YS02001895        0.80      0.80      1.08      0.01         0.01
  YS02001895YS02001898        0.79      0.79      0.80      0.01         0.01
  YS02001898YS02001901        0.81      0.81      0.92      0.01         0.01
  YS02001901YS02001904        0.89      0.89      0.92      0.01         0.01
  YS02001904YS02001907        0.89      0.89      1.89      0.01         0.01
  YS02001887YS02001890        1.00      1.00      1.03      0.01         0.01
  YS02001652YS02001649        5.76      5.76      5.87      0.01         0.01
  YS02001655YS02001652        5.50      5.50      5.74      0.01         0.01
  YS02001658YS02001655        5.33      5.33      5.50      0.01         0.01
  YS02001661YS02001658        0.12      0.12      5.33      0.01         0.01
  YS02001664YS02001661        0.01      0.01      1.04      0.01         0.01
  HS02004881HS02006253        0.01      0.01      0.14      0.01         0.01
  YS02001793JiankangQianchi        2.16      2.16      4.64      0.01         0.01
  YS02001757CaochengTiaoxuchi        5.21      5.21      5.98      0.01         0.01
  
  
  ***************
  Pumping Summary
  ***************
  
  ---------------------------------------------------------------------------------------------------------
                                                  Min       Avg       Max     Total     Power    % Time Off
                        Percent   Number of      Flow      Flow      Flow    Volume     Usage    Pump Curve
  Pump                 Utilized   Start-Ups       LPS       LPS       LPS  10^6 ltr     Kw-hr    Low   High
  ---------------------------------------------------------------------------------------------------------
  CC-Pump-1               38.30           5      0.00    123.18    200.00     1.200      0.82    0.0    0.0
  CC-Pump-2               12.76           3      0.00    100.73    199.81     0.360      0.35    0.0    0.0
  JK-Pump-1               57.45           5      0.00    214.18    300.00     3.368     53.46    0.0    0.0
  JK-Pump-2               55.33           5      0.00    396.70    683.00     6.145     92.94    0.0   95.4
  XR-Pump-1               97.87           2      0.00     92.99     95.00     2.508     23.97    0.0    0.0
  XR-Pump-2               97.87           2      0.00     92.99     95.00     2.508     23.97    0.0    0.0
  XR-Pump-3               95.75           3      0.00     93.00     95.00     2.451     22.67    0.0    0.0
  XR-Pump-4               95.75           3      0.00     93.00     95.00     2.451     22.67    0.0    0.0
  
  
  ***************************
  Link Pollutant Load Summary
  ***************************
  
  ------------------------------------------------------------------------------------------
                                 COD            SS            TN            TP         NH4-N
  Link                            kg            kg            kg            kg            kg
  ------------------------------------------------------------------------------------------
  WS02003066WSF200           629.310      1161.730        17.607         1.597         9.411
  WS02006287WS02006284       268.032       498.160         9.345         0.943         5.213
  WS02006284WS02006280       268.515       498.938         9.391         0.949         5.242
  WS02006280WS02006229       268.480       498.872         9.389         0.948         5.241
  WS02006229WS02006228       626.487      1156.989        17.160         1.536         9.125
  WS02006256WS02006235       185.956       340.307         4.108         0.319         2.077
  WS02006253WS02006251        50.903        98.320         1.114         0.082         0.550
  WS02006252WS02006251       133.147       241.202         2.824         0.208         1.395
  WS02006251WS02006249       177.916       328.424         3.825         0.283         1.892
  WS02006249WS02006248       175.030       323.141         3.758         0.278         1.859
  WS02006248WS02006247       175.365       323.762         3.769         0.279         1.865
  WS02006247WS02006245       175.298       323.628         3.771         0.279         1.866
  WS02006245WS02006243       175.117       323.363         3.767         0.279         1.864
  WS02006243WS02006242       175.347       323.781         3.777         0.280         1.870
  WS02006242WS02006240       176.346       325.549         3.789         0.280         1.875
  WS02006240WS02006239       178.833       329.955         3.849         0.285         1.905
  WS02006239WS02006238       182.332       335.947         3.944         0.293         1.955
  WS02006238WS02006235       184.608       339.795         4.004         0.298         1.987
  WS02006235WS02006234       360.186       661.947         7.845         0.595         3.925
  WS02006234WS02006232       360.042       661.658         7.844         0.595         3.925
  WS02006232WS02006231       359.692       661.031         7.836         0.594         3.921
  WS02006231WS02006230       359.760       661.199         7.836         0.594         3.921
  WS02006230WS02006229       358.945       659.749         7.815         0.593         3.910
  WS02006228WS02006109       625.507      1155.258        17.118         1.531         9.100
  WS02006116WS02004401       636.742      1174.865        17.833         1.618         9.534
  WS02006115WS02006116       637.903      1176.929        17.868         1.621         9.553
  WS02006113WS02006111       631.613      1164.735        17.814         1.620         9.540
  WS02006112WS02006115       638.955      1178.756        17.913         1.626         9.579
  WS02006111WS02006112       631.087      1163.796        17.798         1.619         9.531
  WS02006110WS02006113       631.966      1165.329        17.834         1.622         9.551
  WS02006109WS02006110       633.098      1167.236        17.900         1.630         9.591
  WS02004411WS02004412       631.197      1164.966        17.696         1.607         9.463
  WS02004401WS02004402       635.613      1172.893        17.789         1.614         9.509
  WS02004413WS02003067       629.539      1162.132        17.614         1.598         9.415
  WS02004412WS02004413       630.571      1163.878        17.671         1.604         9.449
  WS02004410WS02004411       631.652      1165.760        17.713         1.609         9.473
  WS02004409WS02004410       632.160      1166.643        17.735         1.611         9.485
  WS02004407WS02004409       632.482      1167.216        17.744         1.612         9.490
  WS02004406WS02004407       632.472      1167.217        17.738         1.611         9.486
  WS02004405WS02004406       633.839      1169.540        17.817         1.620         9.534
  WS02004404WS02004405       634.292      1170.411        17.804         1.618         9.524
  WS02004403WS02004404       633.700      1169.537        17.718         1.606         9.469
  WS02004402WS02004403       634.585      1171.079        17.754         1.610         9.489
  WS02004139WS02001211      1398.884      2304.718       116.319        14.244        71.832
  WS02004138WS02004139      1405.362      2315.415       116.843        14.308        72.155
  WS02003067WS02003066       629.393      1161.866        17.612         1.598         9.414
  WS02001213WS02003059      1432.097      2357.146       119.718        14.673        73.967
  WS02001212WS02001213      1441.334      2372.309       120.493        14.768        74.446
  WS02001211WS02001212      1443.207      2375.358       120.656        14.788        74.547
  WS02003072WS02003073      2162.653      3680.195       147.266        17.516        89.601
  WS02003069WS02003072      2167.443      3687.979       147.679        17.567        89.857
  WS02003060WS02003069      2169.957      3692.194       147.858        17.588        89.966
  WS02003059WS02003060      1429.273      2352.423       119.508        14.647        73.838
  HS02004901HS02004770        10.270        19.476         0.195         0.015         0.091
  HS02004876HS02004881        37.315        72.573         0.843         0.062         0.416
  HS02004870HS02004876        28.158        54.624         0.678         0.051         0.338
  HS02004842HS02004848         5.467        10.277         0.115         0.008         0.053
  HS02004837HS02004842        10.075        17.586         0.584         0.067         0.348
  HS02004830HS02004837        65.640       112.705         4.557         0.546         2.785
  HS02004824HS02004830        66.390       113.907         4.628         0.555         2.830
  HS02004817HS02004824        88.206       156.974         5.083         0.584         3.051
  HS02004770HS02004777        39.294        75.462         0.819         0.055         0.377
  HS02004799HS02004480       131.402       245.354         3.680         0.335         1.932
  HS02004792HS02004799       119.080       220.651         3.497         0.327         1.853
  HS02004788HS02004792        68.394       126.853         2.388         0.235         1.309
  HS02004785HS02004788        40.732        77.757         0.969         0.074         0.471
  HS02004777HS02004785        40.058        76.663         0.909         0.067         0.434
  HS02004480HS02004478       165.936       312.565         4.243         0.374         2.195
  HS02004479HS02004480        38.143        72.970         0.884         0.079         0.462
  HS02004862HS02004870        21.015        40.114         0.536         0.043         0.270
  HS02004848HS02004852         8.057        15.279         0.167         0.011         0.077
  HS02004856HS02004862        14.071        27.339         0.284         0.019         0.133
  HS02004852HS02004856         8.064        15.290         0.167         0.011         0.077
  HS02004802HS02004478       102.882       186.880         5.162         0.575         3.055
  HS02004478WS02006287       268.232       498.496         9.362         0.945         5.223
  HS02004817HS02004807        86.886       154.858         4.956         0.568         2.972
  HS02004807HS02004802       103.111       187.237         5.194         0.580         3.075
  YS02001759YS02001757       282.061       512.361         5.664         0.394         2.770
  YS02001762YS02001759       153.593       280.000         3.237         0.229         1.601
  YS02001765YS02001762       154.701       282.783         3.276         0.232         1.623
  YS02001770YS02001767       157.638       290.363         3.185         0.214         1.551
  YS02001774YS02001770       232.214       441.133         4.541         0.301         2.198
  YS02001779YS02001774       231.719       440.131         4.637         0.316         2.264
  YS02001649YS02001757       362.772       650.275         7.348         0.503         3.540
  YS02001767YS02001765       156.446       286.749         3.322         0.236         1.647
  YS02006561YS02001783       938.105      1720.239        19.930         1.499         9.955
  YS02001783YS02001784       937.990      1720.065        19.925         1.499         9.953
  YS02001784YS02001785       945.338      1731.850        20.638         1.588        10.399
  YS02001788YS02001790       945.957      1732.869        20.711         1.598        10.445
  YS02001790YS02001791       947.137      1734.816        20.815         1.610        10.510
  YS02001791YS02001793       947.112      1734.784        20.812         1.610        10.508
  YS02001910YS02001907       330.788       600.213         8.329         0.655         4.315
  YS02001786YS02001788       945.583      1732.274        20.667         1.592        10.417
  YS02001915YS02001910       330.872       600.340         8.285         0.648         4.285
  YS02001918YS02001915       162.054       281.751         4.788         0.448         2.614
  YS02001923YS02001920       139.704       244.958         2.802         0.203         1.379
  YS02001926YS02001923       138.378       242.731         2.716         0.193         1.327
  YS02001929YS02001926       136.381       239.367         2.579         0.177         1.243
  YS02001920YS02001918       160.304       278.138         4.727         0.443         2.581
  YS02001629YS02163301       103.552       183.493         2.172         0.140         1.012
  YS02001619YS02001622       146.407       262.955         3.031         0.197         1.414
  YS02001622YS02001625       145.251       261.129         3.003         0.195         1.401
  YS02001625YS02001629       104.638       185.288         2.196         0.142         1.023
  YS02163301YS02001633       103.294       183.060         2.165         0.140         1.010
  YS02163601YS02164001       362.122       646.367         7.117         0.503         3.404
  YS02164001YS02001641       361.667       645.607         7.098         0.501         3.393
  YS02001641YS02001644       361.927       645.978         7.097         0.500         3.392
  YS02001647YS02001649       422.606       764.172         8.479         0.583         4.063
  YS02006553YS02006556       659.524      1203.690        14.330         1.106         7.236
  YS02006556YS02006558       659.536      1203.705        14.299         1.101         7.215
  YSB6556YSB1171              21.950        42.193         0.451         0.038         0.229
  YS02001907YS02006553       659.622      1203.891        14.344         1.108         7.245
  YS02006558YS02006561       938.057      1720.140        19.928         1.499         9.955
  YS02001633YS02163601       362.806       647.421         7.097         0.499         3.388
  YS02001644YS02001647       428.683       774.980         8.569         0.589         4.103
  YS02001745YS02001748       209.968       386.296         4.721         0.329         2.356
  YS02001748YS02001751       208.462       383.312         4.807         0.344         2.419
  YS02001751YS02001754       207.485       381.713         4.788         0.343         2.411
  YS02001754YS02001757       208.268       382.900         4.952         0.366         2.517
  YS02001882YS02001884         2.592         4.461         0.052         0.004         0.026
  YS02001884YS02001887         6.924        12.275         0.135         0.010         0.067
  YS02001890YS02001895       389.487       720.694         7.189         0.539         3.508
  YS02001895YS02001898       389.312       720.457         7.183         0.539         3.505
  YS02001898YS02001901       389.099       720.093         7.178         0.538         3.502
  YS02001901YS02001904       388.934       719.854         7.185         0.540         3.507
  YS02001904YS02001907       389.159       720.201         7.238         0.547         3.542
  YS02001887YS02001890       390.301       721.914         7.244         0.546         3.542
  YS02001652YS02001649       157.199       287.028         3.211         0.231         1.505
  YS02001655YS02001652       157.883       288.130         3.229         0.232         1.513
  YS02001658YS02001655       157.414       287.359         3.144         0.220         1.458
  YS02001661YS02001658       162.000       295.533         3.237         0.227         1.500
  YS02001664YS02001661       175.656       318.309         3.540         0.247         1.639
  YSB1154YSB6556              21.531        41.526         0.402         0.032         0.198
  YSB1174YSB1171              14.653        28.288         0.298         0.024         0.149
  YSB1171HS02004479           38.101        72.903         0.887         0.079         0.465
  HS02004881HS02006253        42.259        82.482         0.933         0.068         0.460
  YS02001793JiankangQianchi       946.968      1734.563        20.776         1.605        10.484
  YS02001757CaochengTiaoxuchi       467.286       841.231         9.969         0.726         4.923
  WSF200WS02003060           629.623      1162.243        17.634         1.601         9.428
  1                         2168.373      3688.859       147.948        17.603        90.033
  CC-Pump-1                  101.545       183.823         2.152         0.158         1.062
  CC-Pump-2                   31.364        56.980         0.662         0.049         0.327
  JK-Pump-1                  212.152       390.522         4.602         0.354         2.317
  JK-Pump-2                  457.309       847.100         9.720         0.740         4.869
  XR-Pump-1                  357.758       589.159        29.812         3.652        18.414
  XR-Pump-2                  357.758       589.159        29.812         3.652        18.414
  XR-Pump-3                  346.852       571.707        28.773         3.522        17.765
  XR-Pump-4                  346.852       571.707        28.773         3.522        17.765
  

  Analysis begun on:  Thu Jul 15 08:06:35 2021
  Analysis ended on:  Thu Jul 15 08:06:38 2021
  Total elapsed time: 00:00:03