
  EPA STORM WATER MANAGEMENT MODEL - VERSION 5.1 (Build 5.3.0.dev0)
  --------------------------------------------------------------

  WARNING 04: minimum elevation drop used for Conduit WS02004404WS02004405
  WARNING 03: negative offset ignored for Link YS02001904YS02001907
  
  *********************************************************
  NOTE: The summary statistics displayed in this report are
  based on results found at every computational time step,  
  not just on results from each reporting time step.
  *********************************************************
  
  ****************
  Analysis Options
  ****************
  Flow Units ............... LPS
  Process Models:
    Rainfall/Runoff ........ YES
    RDII ................... NO
    Snowmelt ............... NO
    Groundwater ............ NO
    Flow Routing ........... YES
    Ponding Allowed ........ NO
    Water Quality .......... YES
  Infiltration Method ...... HORTON
  Flow Routing Method ...... DYNWAVE
  Surcharge Method ......... EXTRAN
  Starting Date ............ 08/28/2015 08:00:00
  Ending Date .............. 08/28/2015 15:50:00
  Antecedent Dry Days ...... 8.0
  Report Time Step ......... 00:01:00
  Wet Time Step ............ 00:01:00
  Dry Time Step ............ 00:01:00
  Routing Time Step ........ 5.00 sec
  Variable Time Step ....... YES
  Maximum Trials ........... 8
  Number of Threads ........ 4
  Head Tolerance ........... 0.001500 m
  
  
  **************************        Volume         Depth
  Runoff Quantity Continuity     hectare-m            mm
  **************************     ---------       -------
  Total Precipitation ......         5.556        12.164
  Evaporation Loss .........         0.000         0.000
  Infiltration Loss ........         1.002         2.194
  Surface Runoff ...........         3.688         8.075
  Final Storage ............         0.866         1.897
  Continuity Error (%) .....        -0.019
  
  
  **************************           COD            SS            TN            TP         NH4-N
  Runoff Quality Continuity             kg            kg            kg            kg            kg
  **************************    ----------    ----------    ----------    ----------    ----------
  Initial Buildup ..........     41378.656     70582.865      1804.177       168.684      1032.807
  Surface Buildup ..........        19.275        34.271         2.335         0.213         1.362
  Wet Deposition ...........         0.000         0.000         0.000         0.000         0.000
  Sweeping Removal .........         0.000         0.000         0.000         0.000         0.000
  Infiltration Loss ........        84.023       157.502         1.599         0.111         0.761
  BMP Removal ..............         0.000         0.000         0.000         0.000         0.000
  Surface Runoff ...........      3122.074      5752.154        60.620         4.098        28.771
  Remaining Buildup ........     38190.779     64705.500      1744.271       164.686      1004.628
  Continuity Error (%) .....         0.003         0.003         0.001         0.001         0.001
  
  
  **************************        Volume        Volume
  Flow Routing Continuity        hectare-m      10^6 ltr
  **************************     ---------     ---------
  Dry Weather Inflow .......         0.616         6.165
  Wet Weather Inflow .......         3.687        36.871
  Groundwater Inflow .......         0.000         0.000
  RDII Inflow ..............         0.000         0.000
  External Inflow ..........         0.102         1.024
  External Outflow .........         1.843        18.431
  Flooding Loss ............         2.121        21.213
  Evaporation Loss .........         0.000         0.000
  Exfiltration Loss ........         0.000         0.000
  Initial Stored Volume ....         0.076         0.761
  Final Stored Volume ......         0.633         6.329
  Continuity Error (%) .....        -2.572
  
  
  **************************           COD            SS            TN            TP         NH4-N
  Quality Routing Continuity            kg            kg            kg            kg            kg
  **************************    ----------    ----------    ----------    ----------    ----------
  Dry Weather Inflow .......      1541.201      2465.922       147.955        18.494        92.472
  Wet Weather Inflow .......      3121.391      5751.016        60.605         4.097        28.764
  Groundwater Inflow .......         0.000         0.000         0.000         0.000         0.000
  RDII Inflow ..............         0.000         0.000         0.000         0.000         0.000
  External Inflow ..........       183.418       293.469        17.608         2.201        11.005
  External Outflow .........      2219.404      3780.882       149.360        17.729        90.787
  Flooding Loss ............      1943.466      3553.979        49.781         4.292        26.086
  Exfiltration Loss ........         0.000         0.000         0.000         0.000         0.000
  Mass Reacted .............         0.000         0.000         0.000         0.000         0.000
  Initial Stored Mass ......         0.000         0.000         0.000         0.000         0.000
  Final Stored Mass ........       550.988       949.756        23.735         2.511        13.690
  Continuity Error (%) .....         2.727         2.653         1.456         1.053         1.269
  
  
  *************************
  Highest Continuity Errors
  *************************
  Node HS02004842 (14.53%)
  Node JK-storage (-11.36%)
  Node YS02001884 (11.25%)
  Node YSB1171 (2.75%)
  Node HS02004817 (2.73%)
  
  
  ***************************
  Time-Step Critical Elements
  ***************************
  Link WS02006252WS02006251 (56.50%)
  Link WS02006280WS02006229 (11.82%)
  Link WS02006238WS02006235 (9.66%)
  Link YS02006556YS02006558 (5.61%)
  Link YS02001793JiankangQianchi (4.85%)
  
  
  ********************************
  Highest Flow Instability Indexes
  ********************************
  Link WS02006113WS02006111 (50)
  Link YS02163601YS02164001 (47)
  Link YS02163301YS02001633 (47)
  Link YS02001619YS02001622 (45)
  Link YS02001629YS02163301 (45)
  
  
  *************************
  Routing Time Step Summary
  *************************
  Minimum Time Step           :     0.35 sec
  Average Time Step           :     1.33 sec
  Maximum Time Step           :     5.00 sec
  Percent in Steady State     :    -0.00
  Average Iterations per Step :     4.64
  Percent Not Converging      :    22.67
  
  
  ***************************
  Subcatchment Runoff Summary
  ***************************
  
  ------------------------------------------------------------------------------------------------------------------------------
                            Total      Total      Total      Total     Imperv       Perv      Total       Total     Peak  Runoff
                           Precip      Runon       Evap      Infil     Runoff     Runoff     Runoff      Runoff   Runoff   Coeff
  Subcatchment                 mm         mm         mm         mm         mm         mm         mm    10^6 ltr      LPS
  ------------------------------------------------------------------------------------------------------------------------------
  sub0                      12.16       0.00       0.00       0.65      11.27       0.20      11.47        0.01     1.99   0.943
  sub1                      12.16       0.00       0.00       1.12      10.73       0.22      10.95        0.07    14.96   0.900
  sub2                      12.16       0.00       0.00       4.23       7.58       0.27       7.85        0.07    15.08   0.646
  sub3                      12.16       0.00       0.00       4.29       7.54       0.21       7.75        0.17    34.61   0.637
  sub4                      12.16       0.00       0.00       1.19      10.57       0.14      10.71        0.22    42.34   0.881
  sub5                      12.16       0.00       0.00       0.69      11.21       0.16      11.38        0.13    26.18   0.935
  sub7                      12.16       0.00       0.00       0.88      11.01       0.22      11.22        0.04     7.95   0.923
  sub8                      12.16       0.00       0.00       0.89      11.00       0.21      11.20        0.07    14.89   0.921
  sub9                      12.16       0.00       0.00       0.89      10.99       0.21      11.20        0.05    11.18   0.921
  sub10                     12.16       0.00       0.00       0.79      11.10       0.18      11.28        0.12    25.49   0.928
  sub11                     12.16       0.00       0.00       0.78      11.12       0.19      11.31        0.13    27.35   0.930
  sub12                     12.16       0.00       0.00       1.27      10.53       0.31      10.85        0.09    20.52   0.892
  sub14                     12.16       0.00       0.00       0.89      10.99       0.20      11.20        0.11    22.08   0.920
  sub15                     12.16       0.00       0.00       3.28       8.45       0.37       8.82        0.15    32.49   0.725
  sub16                     12.16       0.00       0.00       3.51       8.11       0.50       8.61        0.09    20.36   0.708
  sub17                     12.16       0.00       0.00       3.41       8.23       0.48       8.71        0.07    16.72   0.716
  sub22                     12.16       0.00       0.00       4.80       6.89       0.43       7.32        0.46   102.62   0.602
  sub23                     12.16       0.00       0.00       4.05       7.62       0.45       8.07        0.38    85.35   0.663
  sub60                     12.16       0.00       0.00       1.42       8.82       0.04       8.86        2.69   336.84   0.729
  sub61                     12.16       0.00       0.00       2.01       8.94       0.06       9.00        2.78   399.45   0.740
  sub62                     12.16       0.00       0.00       0.92       9.73       0.05       9.78        3.01   415.79   0.804
  sub63                     12.16       0.00       0.00       3.46       7.82       0.06       7.88        2.39   361.21   0.648
  sub64                     12.16       0.00       0.00       1.78       8.47       0.04       8.51        2.59   320.97   0.699
  sub65                     12.16       0.00       0.00       1.54       8.61       0.04       8.65        2.66   326.54   0.711
  sub66                     12.16       0.00       0.00       3.49       7.26       0.04       7.30        2.24   290.53   0.600
  sub67                     12.16       0.00       0.00       0.91      10.24       0.07      10.31        3.18   494.23   0.848
  sub68                     12.16       0.00       0.00       1.64       9.40       0.06       9.46        2.91   432.52   0.778
  sub69                     12.16       0.00       0.00       1.73       9.72       0.09       9.82        2.29   383.95   0.807
  sub70                     12.16      10.02       0.00       6.98      13.09       0.56      13.65        3.12   394.93   0.615
  sub71                     12.16       0.00       0.00       0.93       9.48       0.05       9.53        2.25   296.34   0.783
  sub72                     12.16       0.00       0.00       0.83       7.62       0.02       7.64        1.56   151.13   0.628
  1                         12.16      13.29       0.00       1.37      14.64       3.94      18.57        4.36   399.24   0.730
  2                         12.16       0.00       0.00       3.02       2.89       1.65       4.55        1.82   245.52   0.374
  
  
  ****************************
  Subcatchment Washoff Summary
  ****************************
  
  ------------------------------------------------------------------------------------------
                                 COD            SS            TN            TP         NH4-N
  Subcatchment                    kg            kg            kg            kg            kg
  ------------------------------------------------------------------------------------------
  sub0                         2.176         4.147         0.037         0.003         0.018
  sub1                         9.268        18.138         0.173         0.012         0.083
  sub2                         5.563        10.570         0.119         0.008         0.054
  sub3                        13.747        25.918         0.288         0.019         0.132
  sub4                        21.530        42.606         0.429         0.026         0.205
  sub5                        21.300        41.103         0.378         0.029         0.183
  sub7                         4.748         9.424         0.090         0.006         0.043
  sub8                         7.142        14.500         0.143         0.008         0.069
  sub9                         6.100        12.212         0.118         0.007         0.057
  sub10                       17.532        34.266         0.321         0.023         0.155
  sub11                       17.086        33.770         0.320         0.022         0.154
  sub12                       14.392        27.890         0.260         0.019         0.125
  sub14                       13.021        25.823         0.247         0.016         0.119
  sub15                       16.182        30.744         0.313         0.023         0.146
  sub16                       10.318        19.555         0.197         0.015         0.092
  sub17                        9.471        17.789         0.175         0.014         0.082
  sub22                       48.821        90.813         0.932         0.070         0.434
  sub23                       29.138        56.181         0.627         0.041         0.287
  sub60                      203.703       376.194         4.083         0.248         1.956
  sub61                      251.300       461.579         4.699         0.320         2.261
  sub62                      262.762       491.326         5.157         0.324         2.474
  sub63                      185.047       334.594         3.739         0.261         1.731
  sub64                      253.867       452.095         4.687         0.339         2.235
  sub65                      260.106       465.192         4.834         0.344         2.309
  sub66                      146.558       263.078         3.037         0.197         1.417
  sub67                      388.205       718.566         6.963         0.510         3.363
  sub68                      276.714       513.393         5.318         0.356         2.539
  sub69                      247.676       464.012         4.658         0.325         2.225
  sub70                      413.256       778.342         8.287         0.572         3.877
  sub71                      173.740       327.842         3.597         0.206         1.720
  sub72                      136.329       239.316         2.558         0.174         1.230
  1                          280.724       531.718         5.751         0.398         2.660
  2                           35.485        61.812         1.030         0.062         0.437
  ------------------------------------------------------------------------------------------
  System                    3783.006      6994.507        73.566         4.996        34.873
  
  
  ******************
  Node Depth Summary
  ******************
  
  ---------------------------------------------------------------------------------
                                 Average  Maximum  Maximum  Time of Max    Reported
                                   Depth    Depth      HGL   Occurrence   Max Depth
  Node                 Type       Meters   Meters   Meters  days hr:min      Meters
  ---------------------------------------------------------------------------------
  WS02001211           JUNCTION     0.77     0.83     5.67     0  03:09        0.83
  WS02001212           JUNCTION     0.47     0.55     5.62     0  03:09        0.55
  WS02001213           JUNCTION     0.71     0.82     5.59     0  03:08        0.82
  WS02003069           JUNCTION     0.50     0.68     5.26     0  03:08        0.68
  WS02003072           JUNCTION     0.56     0.73     5.10     0  03:08        0.73
  WS02003073           JUNCTION     0.34     0.45     4.52     0  03:09        0.45
  WS02003060           JUNCTION     0.44     0.60     5.53     0  03:07        0.60
  WS02003066           JUNCTION     0.24     0.36     5.92     0  03:05        0.36
  WS02003059           JUNCTION     0.76     0.88     5.57     0  03:08        0.88
  WS02003067           JUNCTION     0.58     0.79     6.11     0  03:05        0.79
  WS02004401           JUNCTION     0.69     1.14     7.14     0  03:01        1.13
  WS02004402           JUNCTION     0.72     1.14     7.10     0  03:01        1.14
  WS02004403           JUNCTION     0.74     1.13     7.06     0  03:02        1.12
  WS02004404           JUNCTION     0.81     1.18     7.03     0  03:03        1.17
  WS02004406           JUNCTION     0.82     1.12     6.95     0  03:03        1.12
  WS02004409           JUNCTION     0.50     0.87     6.64     0  03:04        0.87
  WS02004410           JUNCTION     0.52     0.87     6.59     0  03:04        0.87
  WS02004411           JUNCTION     0.54     0.86     6.54     0  03:04        0.86
  WS02004412           JUNCTION     0.55     0.84     6.48     0  03:05        0.84
  WS02004413           JUNCTION     0.71     0.98     6.45     0  03:05        0.98
  WS02004405           JUNCTION     0.81     1.16     7.01     0  03:02        1.15
  WS02006109           JUNCTION     0.78     1.31     7.93     0  03:02        1.31
  WS02006110           JUNCTION     0.76     1.15     7.74     0  03:02        1.15
  WS02006111           JUNCTION     0.23     0.66     7.36     0  03:02        0.66
  WS02006112           JUNCTION     0.86     1.42     7.30     0  03:02        1.41
  WS02006113           JUNCTION     0.35     0.65     7.54     0  03:02        0.65
  WS02006115           JUNCTION     0.58     1.09     7.23     0  03:01        1.09
  WS02006116           JUNCTION     0.66     1.15     7.19     0  02:59        1.15
  WS02006230           JUNCTION     0.77     1.52     8.27     0  03:02        1.51
  WS02006231           JUNCTION     0.51     1.22     8.34     0  03:02        1.21
  WS02006232           JUNCTION     0.65     1.37     8.41     0  03:02        1.35
  WS02006234           JUNCTION     0.57     1.32     8.48     0  03:02        1.31
  WS02006235           JUNCTION     0.61     1.37     8.54     0  03:01        1.36
  WS02006238           JUNCTION     0.63     1.39     8.54     0  03:02        1.38
  WS02006240           JUNCTION     0.52     1.34     8.64     0  02:57        1.28
  WS02006242           JUNCTION     0.57     1.55     8.82     0  02:55        1.32
  WS02006243           JUNCTION     0.45     1.48     8.90     0  02:57        1.21
  WS02006245           JUNCTION     0.42     1.38     8.86     0  02:57        1.16
  WS02006247           JUNCTION     0.43     1.43     8.93     0  02:56        1.17
  WS02006248           JUNCTION     0.37     1.10     8.69     0  02:57        1.09
  WS02006249           JUNCTION     0.39     1.09     8.69     0  02:57        1.09
  WS02006239           JUNCTION     0.58     1.35     8.55     0  03:03        1.34
  WS02006251           JUNCTION     0.36     1.50     9.17     0  02:58        1.30
  WS02006252           JUNCTION     0.24     1.04     9.29     0  02:58        0.85
  WS02006253           JUNCTION     0.39     1.96     9.60     0  02:58        1.35
  WS02006256           JUNCTION     1.70     2.35     9.28     0  00:28        2.35
  WS02004138           JUNCTION     0.19     0.20     7.45     0  00:00        0.19
  WS02004139           JUNCTION     0.71     0.77     5.68     0  03:10        0.77
  WS02004407           JUNCTION     0.23     0.37     6.69     0  03:03        0.37
  WS02006228           JUNCTION     0.78     1.44     8.09     0  03:02        1.43
  WS02006229           JUNCTION     0.77     1.49     8.18     0  03:02        1.48
  WS02006280           JUNCTION     0.07     0.20     8.47     0  03:02        0.20
  WS02006284           JUNCTION     0.37     0.56     8.96     0  03:02        0.56
  WS02006287           JUNCTION     0.10     0.30     9.25     0  03:01        0.30
  WSF200               JUNCTION     0.22     0.40     5.64     0  03:05        0.40
  HS02004901           JUNCTION     0.13     0.29    10.12     0  03:01        0.29
  HS02004881           JUNCTION     0.01     0.05     9.08     0  02:58        0.04
  HS02004876           JUNCTION     0.05     0.13     9.16     0  02:58        0.13
  HS02004870           JUNCTION     0.02     0.07     9.35     0  03:01        0.07
  HS02004862           JUNCTION     0.02     0.08     9.46     0  03:01        0.08
  HS02004856           JUNCTION     0.08     0.13     9.55     0  03:01        0.13
  HS02004852           JUNCTION     0.01     0.05     9.56     0  03:01        0.05
  HS02004848           JUNCTION     0.01     0.05     9.65     0  03:01        0.05
  HS02004842           JUNCTION     0.34     0.38     9.65     0  03:01        0.38
  HS02004837           JUNCTION     0.03     0.07     9.65     0  03:01        0.07
  HS02004830           JUNCTION     0.04     0.08     9.55     0  03:01        0.08
  HS02004824           JUNCTION     0.02     0.06     9.47     0  03:01        0.06
  HS02004817           JUNCTION     0.44     0.61     9.45     0  03:01        0.61
  HS02004807           JUNCTION     0.13     0.28     9.45     0  03:01        0.28
  HS02004802           JUNCTION     0.17     0.31     9.44     0  03:01        0.31
  HS02004799           JUNCTION     0.13     0.35     9.56     0  03:01        0.35
  HS02004792           JUNCTION     0.04     0.15     9.67     0  03:01        0.15
  HS02004788           JUNCTION     0.03     0.11    10.01     0  03:01        0.11
  HS02004785           JUNCTION     0.05     0.18    10.09     0  03:01        0.18
  HS02004777           JUNCTION     0.15     0.31    10.11     0  03:01        0.31
  HS02004770           JUNCTION     0.12     0.29    10.12     0  03:01        0.29
  HS02004480           JUNCTION     0.09     0.28     9.52     0  03:01        0.28
  HS02004479           JUNCTION     0.12     0.32     9.52     0  03:01        0.32
  HS02004478           JUNCTION     0.07     0.20     9.42     0  03:01        0.20
  YS02001745           JUNCTION     0.73     0.91     8.43     0  03:01        0.91
  YS02001748           JUNCTION     1.12     1.70     8.77     0  02:27        1.34
  YS02001751           JUNCTION     1.30     1.76     8.64     0  02:27        1.54
  YS02001754           JUNCTION     1.56     1.88     8.49     0  02:27        1.81
  YS02001762           JUNCTION     1.75     2.04     8.44     0  03:24        2.02
  YS02001765           JUNCTION     1.71     1.99     8.44     0  03:24        1.96
  YS02001767           JUNCTION     1.67     1.94     8.43     0  03:12        1.92
  YS02001770           JUNCTION     1.67     1.93     8.42     0  02:56        1.91
  YS02001774           JUNCTION     1.73     1.98     8.40     0  03:29        1.97
  YS02001779           JUNCTION     1.48     1.68     8.37     0  02:19        1.68
  YS02001882           JUNCTION     0.55     1.62     8.34     0  03:00        1.61
  YS02001884           JUNCTION     0.64     1.73     8.34     0  02:58        1.71
  YS02001759           JUNCTION     1.79     2.08     8.44     0  03:14        2.06
  YS02001887           JUNCTION     0.72     1.80     8.33     0  02:57        1.79
  YS02001890           JUNCTION     0.75     1.81     8.32     0  02:45        1.81
  YS02001898           JUNCTION     0.52     1.56     8.29     0  02:59        1.55
  YS02001901           JUNCTION     0.64     1.67     8.28     0  02:56        1.67
  YS02001904           JUNCTION     0.61     1.64     8.27     0  03:02        1.63
  YS02001907           JUNCTION     0.94     1.96     8.25     0  02:45        1.96
  YS02001910           JUNCTION     0.73     1.78     8.28     0  02:46        1.77
  YS02001915           JUNCTION     0.53     1.59     8.31     0  02:46        1.57
  YS02001918           JUNCTION     0.28     1.27     8.34     0  02:46        1.25
  YS02001619           JUNCTION     1.27     1.61     8.54     0  02:27        1.48
  YS02001629           JUNCTION     1.62     1.85     8.40     0  02:27        1.84
  YS02001641           JUNCTION     1.72     1.94     8.37     0  03:42        1.93
  YS02001644           JUNCTION     1.72     1.92     8.35     0  02:35        1.92
  YS02001652           JUNCTION     1.57     2.16     8.76     0  02:18        1.94
  YS02001655           JUNCTION     1.33     2.20     9.05     0  02:18        1.79
  YS02001920           JUNCTION     0.38     1.35     8.35     0  02:46        1.32
  YS02001923           JUNCTION     0.22     1.10     8.36     0  02:46        1.08
  YS02001926           JUNCTION     0.28     0.93     8.37     0  02:46        0.88
  YS02001929           JUNCTION     0.16     0.68     8.38     0  02:46        0.67
  YS02001658           JUNCTION     1.06     1.96     9.10     0  03:38        1.57
  YS02001661           JUNCTION     0.83     1.92     9.32     0  03:38        1.59
  YS02001664           JUNCTION     0.37     0.57     8.50     0  03:58        0.56
  YS02001622           JUNCTION     1.29     1.62     8.52     0  02:27        1.50
  YS02001633           JUNCTION     1.71     1.94     8.40     0  02:53        1.94
  YS02001649           JUNCTION     1.76     2.05     8.44     0  02:39        2.05
  YS02001757           JUNCTION     1.89     2.18     8.44     0  02:57        2.17
  YS02001895           JUNCTION     0.51     1.56     8.31     0  02:58        1.55
  YS02001625           JUNCTION     1.57     1.78     8.38     0  02:27        1.78
  YS02163301           JUNCTION     1.65     1.89     8.40     0  02:27        1.88
  YS02163601           JUNCTION     1.76     1.99     8.39     0  03:42        1.98
  YS02164001           JUNCTION     1.70     1.92     8.38     0  02:54        1.91
  YS02001647           JUNCTION     1.55     1.80     8.41     0  03:47        1.79
  YSB1154              JUNCTION     0.26     0.47     9.52     0  03:01        0.47
  YSB6556              JUNCTION     0.16     0.35     9.52     0  03:01        0.35
  YSB1174              JUNCTION     0.21     0.41     9.52     0  03:01        0.41
  YSB1171              JUNCTION     0.42     0.62     9.52     0  03:01        0.62
  YS02006553           JUNCTION     0.94     1.97     8.25     0  02:53        1.96
  YS02006561           JUNCTION     0.31     1.08     7.74     0  02:45        1.08
  YS02006556           JUNCTION     0.91     1.92     8.23     0  03:00        1.92
  YS02006558           JUNCTION     0.95     1.96     8.23     0  03:00        1.96
  YS02001783           JUNCTION     0.52     1.48     7.62     0  02:45        1.46
  YS02001784           JUNCTION     0.54     1.62     7.69     0  02:37        1.41
  YS02001786           JUNCTION     0.47     1.93     7.96     0  02:37        1.26
  YS02001788           JUNCTION     0.40     1.66     7.64     0  02:37        1.12
  YS02001790           JUNCTION     0.51     1.96     7.60     0  02:36        1.28
  YS02001791           JUNCTION     0.46     2.20     7.67     0  02:36        1.28
  YS02001793           JUNCTION     0.61     1.98     6.81     0  01:57        1.80
  WSC                  OUTFALL      0.34     0.45     1.12     0  03:09        0.45
  JK-storage           STORAGE      2.68     5.80     6.60     0  02:01        5.80
  CC-storage           STORAGE      1.15     1.40     8.40     0  03:23        1.40
  XR-storage           STORAGE      6.36     7.72     5.72     0  02:57        7.72
  
  
  *******************
  Node Inflow Summary
  *******************
  
  -------------------------------------------------------------------------------------------------
                                  Maximum  Maximum                  Lateral       Total        Flow
                                  Lateral    Total  Time of Max      Inflow      Inflow     Balance
                                   Inflow   Inflow   Occurrence      Volume      Volume       Error
  Node                 Type           LPS      LPS  days hr:min    10^6 ltr    10^6 ltr     Percent
  -------------------------------------------------------------------------------------------------
  WS02001211           JUNCTION      7.35   390.27     0  03:22       0.207        10.1       0.392
  WS02001212           JUNCTION      0.00   393.08     0  03:22           0        10.1       0.248
  WS02001213           JUNCTION      0.00   395.71     0  03:21           0        10.1       0.262
  WS02003069           JUNCTION      0.32  1212.86     0  03:07     0.00902        18.5       0.168
  WS02003072           JUNCTION      0.00  1212.84     0  03:08           0        18.5       0.206
  WS02003073           JUNCTION      1.82  1214.75     0  03:08      0.0514        18.5       0.233
  WS02003060           JUNCTION     16.53  1212.39     0  03:07       0.466        18.5       0.161
  WS02003066           JUNCTION      0.00   828.26     0  03:05           0        8.04       0.047
  WS02003059           JUNCTION      0.00   399.32     0  03:21           0        10.1       0.389
  WS02003067           JUNCTION      0.00   827.90     0  03:05           0        8.05       0.101
  WS02004401           JUNCTION      0.00   832.57     0  03:03           0        8.26       0.230
  WS02004402           JUNCTION      0.00   832.83     0  03:03           0        8.24       0.219
  WS02004403           JUNCTION      0.00   832.83     0  03:03           0        8.22       0.203
  WS02004404           JUNCTION      0.16   833.38     0  03:03     0.00457        8.21       0.155
  WS02004406           JUNCTION      0.00   832.67     0  03:03           0        8.18       0.378
  WS02004409           JUNCTION      0.00   832.11     0  03:03           0        8.14       0.161
  WS02004410           JUNCTION      0.00   829.41     0  03:04           0        8.13       0.187
  WS02004411           JUNCTION      0.00   828.27     0  03:04           0        8.11       0.195
  WS02004412           JUNCTION      0.00   827.83     0  03:05           0         8.1       0.215
  WS02004413           JUNCTION      0.00   827.77     0  03:05           0        8.08       0.330
  WS02004405           JUNCTION      0.04   835.61     0  03:03     0.00107         8.2       0.232
  WS02006109           JUNCTION      1.23   818.70     0  03:02      0.0347        8.29       0.215
  WS02006110           JUNCTION      0.00   818.38     0  03:02           0        8.27       0.224
  WS02006111           JUNCTION      0.00   819.27     0  02:58           0        8.25       0.043
  WS02006112           JUNCTION     16.72   832.46     0  03:03      0.0747        8.32       0.338
  WS02006113           JUNCTION      0.00   818.41     0  03:02           0        8.25       0.097
  WS02006115           JUNCTION      0.00   832.33     0  03:03           0        8.29       0.212
  WS02006116           JUNCTION      0.00   832.30     0  03:03           0        8.27       0.178
  WS02006230           JUNCTION     10.28   532.82     0  06:50        0.29        6.12       0.175
  WS02006231           JUNCTION      0.00   522.43     0  06:50           0        5.84       0.107
  WS02006232           JUNCTION      0.00   522.28     0  06:50           0        5.85       0.266
  WS02006234           JUNCTION      0.00   522.78     0  06:50           0        5.86       0.087
  WS02006235           JUNCTION      0.00   523.02     0  06:50           0        5.96       0.184
  WS02006238           JUNCTION      0.00   384.02     0  04:40           0        2.61       0.139
  WS02006240           JUNCTION      0.00   386.31     0  04:40           0        2.54       0.403
  WS02006242           JUNCTION      0.00   386.39     0  04:40           0        2.51       0.517
  WS02006243           JUNCTION      0.00   386.22     0  04:40           0         2.5       0.263
  WS02006245           JUNCTION      0.00   386.04     0  04:40           0         2.5       0.370
  WS02006247           JUNCTION      0.00   387.69     0  04:33           0         2.5       0.280
  WS02006248           JUNCTION      0.00   392.04     0  04:33           0         2.5       0.131
  WS02006249           JUNCTION      0.00   489.51     0  03:00           0        2.63       0.409
  WS02006239           JUNCTION      0.00   384.46     0  04:40           0        2.57       0.209
  WS02006251           JUNCTION      0.08   487.11     0  03:00     0.00217        2.68       0.304
  WS02006252           JUNCTION      0.00   400.00     0  04:30           0        2.22       0.023
  WS02006253           JUNCTION      1.99   266.50     0  02:57     0.00928       0.462       0.776
  WS02006256           JUNCTION      0.00   983.00     0  02:10           0        9.15       0.007
  WS02004138           JUNCTION      0.00   380.00     0  00:00           0        9.97       0.067
  WS02004139           JUNCTION      0.32   394.45     0  00:00     0.00905        9.98       0.451
  WS02004407           JUNCTION      0.00   832.47     0  03:03           0        8.15       0.073
  WS02006228           JUNCTION      0.00   817.26     0  03:02           0        8.27       0.146
  WS02006229           JUNCTION      0.00   819.21     0  03:00           0        8.28       0.168
  WS02006280           JUNCTION      0.00   413.65     0  03:02           0        2.17       0.007
  WS02006284           JUNCTION      0.10   413.60     0  03:02      0.0027        2.17       0.041
  WS02006287           JUNCTION      0.00   413.25     0  03:01           0        2.17       0.033
  WSF200               JUNCTION      0.00   828.38     0  03:05           0        8.04       0.040
  HS02004901           JUNCTION     20.36    20.36     0  03:01      0.0902      0.0904       1.990
  HS02004881           JUNCTION      7.95    87.56     0  02:59      0.0378        0.41       0.090
  HS02004876           JUNCTION     14.96    76.76     0  03:01      0.0728       0.373       0.148
  HS02004870           JUNCTION     14.89    62.16     0  03:01      0.0716         0.3       0.037
  HS02004862           JUNCTION     15.28    47.69     0  03:01      0.0788       0.229       0.077
  HS02004856           JUNCTION     11.18    32.73     0  03:01      0.0539       0.152       0.961
  HS02004852           JUNCTION      0.00    21.94     0  03:01           0      0.0979       0.059
  HS02004848           JUNCTION     34.61    34.61     0  03:01       0.174       0.174       0.028
  HS02004842           JUNCTION      0.00    12.41     0  03:01           0      0.0895      16.998
  HS02004837           JUNCTION     31.84    43.95     0  03:01       0.303        0.38       0.214
  HS02004830           JUNCTION      0.15    43.86     0  03:01     0.00423        0.37       0.334
  HS02004824           JUNCTION     42.39    85.91     0  03:01       0.225       0.594       0.091
  HS02004817           JUNCTION      0.60    86.29     0  03:01      0.0169        0.61       2.809
  HS02004807           JUNCTION     27.35   112.32     0  03:01       0.131       0.726       0.605
  HS02004802           JUNCTION      0.00   111.37     0  03:01           0       0.723       0.550
  HS02004799           JUNCTION     22.08   258.94     0  03:01       0.107        1.24       0.223
  HS02004792           JUNCTION    102.90   238.02     0  03:01        0.47        1.14       0.036
  HS02004788           JUNCTION     34.16   135.95     0  03:01       0.199       0.669       0.058
  HS02004785           JUNCTION      0.15   103.53     0  03:01     0.00423       0.471       0.106
  HS02004777           JUNCTION      0.03   104.16     0  03:01    0.000846       0.472       1.115
  HS02004770           JUNCTION     85.35   105.11     0  03:01       0.385       0.473       0.659
  HS02004480           JUNCTION      0.00   302.47     0  03:01           0        1.46       0.076
  HS02004479           JUNCTION      0.00    44.91     0  03:02           0       0.232       0.317
  HS02004478           JUNCTION      0.00   413.11     0  03:01           0        2.17       0.014
  YS02001745           JUNCTION    336.84   374.21     0  02:26        2.69         2.7       0.411
  YS02001748           JUNCTION      0.04   536.38     0  02:27     0.00127        2.69       0.813
  YS02001751           JUNCTION      0.01   357.21     0  02:17     0.00031        2.65       0.894
  YS02001754           JUNCTION      0.26   344.51     0  03:01     0.00733        2.64       0.946
  YS02001762           JUNCTION      0.00   291.02     0  02:38           0         1.9       1.115
  YS02001765           JUNCTION      0.00   290.85     0  02:38           0         1.9       1.284
  YS02001767           JUNCTION      0.54   291.06     0  02:38      0.0151        1.93       1.867
  YS02001770           JUNCTION    415.94   535.14     0  03:01        3.01         3.5       0.889
  YS02001774           JUNCTION      0.00   535.94     0  03:01           0        2.04       1.229
  YS02001779           JUNCTION      0.01   536.22     0  03:01    0.000141        2.01       0.758
  YS02001882           JUNCTION      0.00    34.46     0  02:39           0      0.0177      14.824
  YS02001884           JUNCTION      0.00    69.24     0  02:38           0       0.055      12.680
  YS02001759           JUNCTION    399.49   572.30     0  02:39        2.78        4.16       0.553
  YS02001887           JUNCTION    494.68   494.86     0  03:01        3.19        3.23       0.266
  YS02001890           JUNCTION      0.00   495.57     0  03:01           0        3.18       0.294
  YS02001898           JUNCTION      0.00   496.05     0  03:01           0        3.16       0.099
  YS02001901           JUNCTION      0.00   496.15     0  03:01           0        3.16       0.224
  YS02001904           JUNCTION      0.00   495.63     0  03:01           0        3.16       0.200
  YS02001907           JUNCTION      0.00   951.13     0  03:01           0        7.02       0.346
  YS02001910           JUNCTION      0.00   455.57     0  03:00           0        3.87       0.308
  YS02001915           JUNCTION    296.36   455.32     0  03:00        2.25         3.9       0.158
  YS02001918           JUNCTION      0.00   215.31     0  02:47           0        1.66       0.112
  YS02001619           JUNCTION    290.53   290.53     0  03:01        2.24        2.24       0.556
  YS02001629           JUNCTION      0.00   214.32     0  02:17           0        1.69       1.732
  YS02001641           JUNCTION      0.00   400.78     0  02:28           0        4.25       0.503
  YS02001644           JUNCTION    321.01  1308.03     0  03:00        2.59        10.7       0.247
  YS02001652           JUNCTION      0.00   379.38     0  03:01           0        2.35       1.004
  YS02001655           JUNCTION      0.15   399.70     0  02:19     0.00434        2.37       0.991
  YS02001920           JUNCTION      2.87   215.06     0  02:47      0.0809        1.65       0.186
  YS02001923           JUNCTION      0.04   237.46     0  02:47     0.00106        1.56       0.049
  YS02001926           JUNCTION      0.05   197.83     0  02:47     0.00147        1.56       0.208
  YS02001929           JUNCTION    151.13   151.13     0  03:01        1.56        1.56       0.037
  YS02001658           JUNCTION      0.00   608.09     0  02:23           0        2.41       0.894
  YS02001661           JUNCTION      0.00   621.55     0  02:39           0        2.74      -0.450
  YS02001664           JUNCTION    361.21   361.21     0  03:01        2.38        2.72       0.232
  YS02001622           JUNCTION      0.00   291.17     0  03:01           0        2.22       1.442
  YS02001633           JUNCTION    326.74   397.90     0  02:35        2.66        4.31       0.750
  YS02001649           JUNCTION      0.00   826.19     0  02:35           0         6.1       0.608
  YS02001757           JUNCTION      0.00  1579.88     0  02:35           0        8.62       1.077
  YS02001895           JUNCTION      0.00   495.09     0  03:01           0        3.17       0.164
  YS02001625           JUNCTION      0.00   290.67     0  03:01           0        2.19       1.806
  YS02163301           JUNCTION      0.00   200.83     0  02:28           0        1.67       1.470
  YS02163601           JUNCTION      0.11   397.90     0  02:35      0.0031        4.27       0.708
  YS02164001           JUNCTION      0.00   398.62     0  02:35           0        4.25       0.474
  YS02001647           JUNCTION      0.00   607.16     0  03:01           0        5.34       0.531
  YSB1154              JUNCTION     26.18    26.18     0  03:01       0.129        0.13       1.130
  YSB6556              JUNCTION      0.00    25.82     0  03:01           0        0.13       0.969
  YSB1174              JUNCTION     20.52    20.52     0  03:01      0.0948      0.0953       1.368
  YSB1171              JUNCTION      0.00    45.30     0  03:01           0       0.231       2.823
  YS02006553           JUNCTION      0.00   704.54     0  03:31           0        6.56       0.243
  YS02006561           JUNCTION      0.00   981.68     0  03:19           0        9.44       0.004
  YS02006556           JUNCTION      0.00   704.56     0  03:31           0        6.56       0.171
  YS02006558           JUNCTION    433.40   982.10     0  03:19        2.93        9.47       0.057
  YS02001783           JUNCTION      0.00   981.39     0  03:19           0        9.44       0.025
  YS02001784           JUNCTION      1.06   982.53     0  03:19      0.0299        9.46       0.034
  YS02001786           JUNCTION      0.06   982.38     0  03:19     0.00159        9.46       0.037
  YS02001788           JUNCTION      0.07   982.55     0  03:19       0.002        9.46       0.022
  YS02001790           JUNCTION      0.15   982.61     0  03:17     0.00437        9.46       0.012
  YS02001791           JUNCTION      0.00   982.60     0  03:17           0        9.46       0.015
  YS02001793           JUNCTION      0.00   982.85     0  03:17           0        9.46      -0.016
  WSC                  OUTFALL       0.00  1214.92     0  03:09           0        18.4       0.000
  JK-storage           STORAGE       0.00   983.17     0  03:19           0        9.61     -10.201
  CC-storage           STORAGE       0.00  1578.74     0  02:35           0        6.18       1.049
  XR-storage           STORAGE     844.76   844.76     0  03:01        11.8        12.4      -0.003
  
  
  **********************
  Node Surcharge Summary
  **********************
  
  Surcharging occurs when water rises above the top of the highest conduit.
  ---------------------------------------------------------------------
                                               Max. Height   Min. Depth
                                   Hours       Above Crown    Below Rim
  Node                 Type      Surcharged         Meters       Meters
  ---------------------------------------------------------------------
  WS02004401           JUNCTION        0.25          0.140        1.520
  WS02004402           JUNCTION        0.26          0.143        1.597
  WS02004403           JUNCTION        0.27          0.127        1.903
  WS02004404           JUNCTION        0.36          0.181        2.599
  WS02004406           JUNCTION        0.32          0.117        2.333
  WS02004405           JUNCTION        0.34          0.158        2.642
  WS02006109           JUNCTION        2.69          0.491        1.329
  WS02006110           JUNCTION        1.03          0.243        1.607
  WS02006112           JUNCTION        1.41          0.419        1.261
  WS02006115           JUNCTION        0.17          0.084        2.166
  WS02006116           JUNCTION        0.18          0.090        2.200
  WS02006230           JUNCTION        0.48          0.440        1.130
  WS02006231           JUNCTION        0.73          0.509        1.021
  WS02006232           JUNCTION        2.34          0.666        0.814
  WS02006234           JUNCTION        1.44          0.598        0.642
  WS02006235           JUNCTION        1.71          0.664        0.626
  WS02006238           JUNCTION        1.87          0.674        0.756
  WS02006240           JUNCTION        1.20          0.635        0.755
  WS02006242           JUNCTION        1.32          0.820        0.000
  WS02006243           JUNCTION        0.90          0.770        0.000
  WS02006245           JUNCTION        0.80          0.666        0.184
  WS02006247           JUNCTION        0.81          0.725        0.035
  WS02006248           JUNCTION        0.67          0.380        0.000
  WS02006249           JUNCTION        0.72          0.390        0.000
  WS02006239           JUNCTION        1.32          0.606        0.684
  WS02006251           JUNCTION        0.25          0.467        0.713
  WS02006252           JUNCTION        0.94          0.645        0.455
  WS02006253           JUNCTION        0.26          0.918        1.562
  WS02006256           JUNCTION        6.76          2.050        0.000
  WS02006228           JUNCTION        2.62          0.611        1.589
  YS02001748           JUNCTION        5.30          0.616        0.574
  YS02001751           JUNCTION        5.49          0.764        0.436
  YS02001754           JUNCTION        5.70          0.830        0.320
  YS02001762           JUNCTION        5.87          1.039        0.111
  YS02001765           JUNCTION        5.84          0.988        0.112
  YS02001767           JUNCTION        5.81          0.941        0.089
  YS02001770           JUNCTION        5.80          0.895        0.025
  YS02001774           JUNCTION        5.86          0.979        0.071
  YS02001779           JUNCTION        5.68          0.680        0.000
  YS02001882           JUNCTION        0.88          0.619        0.211
  YS02001884           JUNCTION        0.91          0.666        0.204
  YS02001759           JUNCTION        5.89          1.076        0.134
  YS02001887           JUNCTION        0.97          0.747        0.203
  YS02001890           JUNCTION        1.00          0.760        0.000
  YS02001898           JUNCTION        0.85          0.528        0.212
  YS02001901           JUNCTION        0.94          0.673        0.197
  YS02001904           JUNCTION        0.92          0.637        0.213
  YS02001907           JUNCTION        1.81          0.950        0.000
  YS02001910           JUNCTION        1.05          0.776        0.324
  YS02001915           JUNCTION        0.87          0.588        0.412
  YS02001918           JUNCTION        0.70          0.272        0.538
  YS02001619           JUNCTION        5.48          0.610        0.000
  YS02001629           JUNCTION        5.49          0.470        0.000
  YS02001641           JUNCTION        5.85          0.938        0.162
  YS02001644           JUNCTION        5.85          0.920        0.000
  YS02001652           JUNCTION        5.73          1.130        0.000
  YS02001655           JUNCTION        5.51          1.200        0.000
  YS02001920           JUNCTION        0.73          0.347        0.793
  YS02001658           JUNCTION        5.34          0.961        0.339
  YS02001661           JUNCTION        0.19          0.849        0.541
  YS02001622           JUNCTION        5.51          0.620        0.000
  YS02001633           JUNCTION        5.83          0.925        0.135
  YS02001649           JUNCTION        5.87          1.050        0.000
  YS02001757           JUNCTION        5.98          1.180        0.030
  YS02001895           JUNCTION        0.86          0.563        0.187
  YS02001625           JUNCTION        5.76          0.780        0.000
  YS02163301           JUNCTION        5.81          0.888        0.142
  YS02163601           JUNCTION        5.87          0.993        0.087
  YS02164001           JUNCTION        5.84          0.918        0.182
  YS02001647           JUNCTION        5.75          0.800        0.100
  YS02006553           JUNCTION        1.88          0.965        0.225
  YS02006561           JUNCTION        0.75          0.283        0.867
  YS02006556           JUNCTION        1.30          0.884        0.466
  YS02006558           JUNCTION        1.26          0.862        0.538
  YS02001783           JUNCTION        1.00          0.682        0.918
  YS02001784           JUNCTION        0.98          0.819        0.671
  YS02001786           JUNCTION        0.92          1.130        0.300
  YS02001788           JUNCTION        0.87          0.859        0.621
  YS02001790           JUNCTION        1.86          1.157        0.000
  YS02001791           JUNCTION        1.98          1.401        0.519
  YS02001793           JUNCTION        2.28          0.975        1.625
  
  
  *********************
  Node Flooding Summary
  *********************
  
  Flooding refers to all water that overflows a node, whether it ponds or not.
  --------------------------------------------------------------------------
                                                             Total   Maximum
                                 Maximum   Time of Max       Flood    Ponded
                        Hours       Rate    Occurrence      Volume     Depth
  Node                 Flooded       LPS   days hr:min    10^6 ltr    Meters
  --------------------------------------------------------------------------
  WS02006242              0.01     41.34      0  02:55       0.000     0.000
  WS02006243              0.01     15.19      0  02:57       0.000     0.000
  WS02006248              0.01    110.32      0  02:57       0.000     0.000
  WS02006249              0.23    272.68      0  02:58       0.115     0.000
  WS02006256              3.44    810.44      0  03:02       5.726     0.000
  YS02001779              2.74    535.63      0  03:01       1.992     0.000
  YS02001890              0.01      1.08      0  02:45       0.000     0.000
  YS02001907              0.57    414.89      0  03:01       0.449     0.000
  YS02001619              0.01     25.21      0  02:27       0.000     0.000
  YS02001629              0.01     26.48      0  02:27       0.000     0.000
  YS02001644              4.67   1307.60      0  03:00       9.201     0.000
  YS02001652              0.01     26.04      0  02:18       0.000     0.000
  YS02001655              0.01    283.47      0  02:18       0.001     0.000
  YS02001622              0.01      9.99      0  02:27       0.000     0.000
  YS02001649              0.03     23.27      0  02:54       0.001     0.000
  YS02001625              1.19    237.57      0  03:01       0.466     0.000
  YS02001790              0.01    153.90      0  02:36       0.000     0.000
  JK-storage              1.05    964.94      0  02:49       1.445     0.000
  XR-storage              3.02    464.76      0  03:01       1.819     0.000
  
  
  **********************
  Storage Volume Summary
  **********************
  
  --------------------------------------------------------------------------------------------------
                         Average     Avg  Evap Exfil       Maximum     Max    Time of Max    Maximum
                          Volume    Pcnt  Pcnt  Pcnt        Volume    Pcnt     Occurrence    Outflow
  Storage Unit           1000 m3    Full  Loss  Loss       1000 m3    Full    days hr:min        LPS
  --------------------------------------------------------------------------------------------------
  JK-storage               0.135      46     0     0         0.291     100       0  02:01     983.00
  CC-storage               3.193      20     0     0         3.915      25       0  03:23     400.00
  XR-storage               0.763      82     0     0         0.926     100       0  02:57     380.00
  
  
  ***********************
  Outfall Loading Summary
  ***********************
  
  ---------------------------------------------------------------------------------------------------------------------------------
                         Flow       Avg       Max       Total         Total         Total         Total         Total         Total
                         Freq      Flow      Flow      Volume           COD            SS            TN            TP         NH4-N
  Outfall Node           Pcnt       LPS       LPS    10^6 ltr            kg            kg            kg            kg            kg
  ---------------------------------------------------------------------------------------------------------------------------------
  WSC                  100.00    731.74   1214.92      18.431      2219.579      3781.169       149.376        17.731        90.797
  ---------------------------------------------------------------------------------------------------------------------------------
  System               100.00    731.74   1214.92      18.431      2219.579      3781.169       149.376        17.731        90.797
  
  
  ********************
  Link Flow Summary
  ********************
  
  -----------------------------------------------------------------------------
                                 Maximum  Time of Max   Maximum    Max/    Max/
                                  |Flow|   Occurrence   |Veloc|    Full    Full
  Link                 Type          LPS  days hr:min     m/sec    Flow   Depth
  -----------------------------------------------------------------------------
  WS02003066WSF200     CONDUIT    828.38     0  03:05      2.94    0.14    0.30
  WS02006287WS02006284 CONDUIT    413.50     0  03:02      2.04    0.19    0.30
  WS02006284WS02006280 CONDUIT    413.65     0  03:02      2.28    0.17    0.28
  WS02006280WS02006229 CONDUIT    413.65     0  03:02      3.62    0.09    0.25
  WS02006229WS02006228 CONDUIT    817.26     0  03:02      1.63    2.71    1.00
  WS02006256WS02006235 CONDUIT    263.72     0  06:32      3.73    2.79    1.00
  WS02006253WS02006251 CONDUIT    184.21     0  02:57      0.60    0.55    1.00
  WS02006252WS02006251 CONDUIT    404.00     0  06:50      3.21    1.48    1.00
  WS02006251WS02006249 CONDUIT    489.51     0  03:00      1.27    1.41    1.00
  WS02006249WS02006248 CONDUIT    392.04     0  04:33      1.19    2.15    1.00
  WS02006248WS02006247 CONDUIT    387.69     0  04:33      1.17    0.84    1.00
  WS02006247WS02006245 CONDUIT    386.04     0  04:40      1.14    3.06    1.00
  WS02006245WS02006243 CONDUIT    386.22     0  04:40      1.18    1.14    1.00
  WS02006243WS02006242 CONDUIT    386.39     0  04:40      1.07    0.83    1.00
  WS02006242WS02006240 CONDUIT    386.31     0  04:40      1.01    1.53    1.00
  WS02006240WS02006239 CONDUIT    384.46     0  04:40      1.05    1.21    1.00
  WS02006239WS02006238 CONDUIT    384.02     0  04:40      1.00    1.23    1.00
  WS02006238WS02006235 CONDUIT    384.44     0  04:40      1.00    0.86    1.00
  WS02006235WS02006234 CONDUIT    522.78     0  06:50      1.36    5.52    1.00
  WS02006234WS02006232 CONDUIT    522.28     0  06:50      1.36    1.06    1.00
  WS02006232WS02006231 CONDUIT    522.43     0  06:50      1.36    1.09    1.00
  WS02006231WS02006230 CONDUIT    522.54     0  06:50      1.36    7.93    1.00
  WS02006230WS02006229 CONDUIT    534.67     0  06:51      1.39   11.90    1.00
  WS02006228WS02006109 CONDUIT    817.47     0  03:02      1.63    3.57    1.00
  WS02006116WS02004401 CONDUIT    832.57     0  03:03      1.06    1.15    1.00
  WS02006115WS02006116 CONDUIT    832.30     0  03:03      1.06    1.07    1.00
  WS02006113WS02006111 CONDUIT    819.27     0  02:58      2.64    0.98    0.82
  WS02006112WS02006115 CONDUIT    832.33     0  03:03      1.06    0.49    1.00
  WS02006111WS02006112 CONDUIT    819.89     0  03:03      1.79    0.39    0.90
  WS02006110WS02006113 CONDUIT    818.41     0  03:02      1.79    0.74    0.91
  WS02006109WS02006110 CONDUIT    818.38     0  03:02      1.63    1.57    1.00
  WS02004411WS02004412 CONDUIT    827.83     0  03:05      1.16    1.18    0.85
  WS02004401WS02004402 CONDUIT    832.83     0  03:03      1.06    1.00    1.00
  WS02004413WS02003067 CONDUIT    827.90     0  03:05      1.42    0.35    0.70
  WS02004412WS02004413 CONDUIT    827.77     0  03:05      1.10    0.55    0.91
  WS02004410WS02004411 CONDUIT    828.27     0  03:04      1.15    1.13    0.86
  WS02004409WS02004410 CONDUIT    829.41     0  03:04      1.15    1.07    0.87
  WS02004407WS02004409 CONDUIT    832.11     0  03:03      1.68    0.29    0.62
  WS02004406WS02004407 CONDUIT    832.47     0  03:03      1.45    0.37    0.69
  WS02004405WS02004406 CONDUIT    832.67     0  03:03      1.06    1.64    1.00
  WS02004404WS02004405 CONDUIT    835.58     0  03:03      1.12    8.19    1.00
  WS02004403WS02004404 CONDUIT    833.22     0  03:03      1.06    0.60    1.00
  WS02004402WS02004403 CONDUIT    832.83     0  03:03      1.06    1.20    1.00
  WS02004139WS02001211 CONDUIT    382.93     0  03:22      0.90    0.48    0.63
  WS02004138WS02004139 CONDUIT    394.13     0  00:00      3.62    0.08    0.46
  WS02003067WS02003066 CONDUIT    828.26     0  03:05      1.54    0.27    0.48
  WS02001213WS02003059 CONDUIT    399.32     0  03:21      0.89    0.66    0.84
  WS02001212WS02001213 CONDUIT    395.71     0  03:21      1.32    0.61    0.53
  WS02001211WS02001212 CONDUIT    393.08     0  03:22      0.78    0.30    0.69
  WS02003072WS02003073 CONDUIT   1212.93     0  03:08      1.89    2.62    0.55
  WS02003069WS02003072 CONDUIT   1212.84     0  03:08      1.76    0.58    0.59
  WS02003060WS02003069 CONDUIT   1212.54     0  03:07      1.98    0.47    0.53
  WS02003059WS02003060 CONDUIT    403.91     0  03:20      0.95    0.26    0.74
  HS02004901HS02004770 CONDUIT     20.52     0  03:01      0.07    0.08    0.42
  HS02004876HS02004881 CONDUIT     79.78     0  02:59      0.97    0.85    0.13
  HS02004870HS02004876 CONDUIT     61.91     0  03:01      0.65    0.04    0.14
  HS02004842HS02004848 CONDUIT     12.41     0  03:01      0.06    0.01    0.31
  HS02004837HS02004842 CONDUIT     12.98     0  03:02      0.42    0.01    0.32
  HS02004830HS02004837 CONDUIT     43.71     0  03:01      0.57    0.04    0.11
  HS02004824HS02004830 CONDUIT     43.67     0  03:01      0.59    0.06    0.11
  HS02004817HS02004824 CONDUIT     85.69     0  03:01      0.26    0.04    0.48
  HS02004770HS02004777 CONDUIT    104.13     0  03:01      0.35    0.19    0.43
  HS02004799HS02004480 CONDUIT    258.32     0  03:01      0.83    0.33    0.44
  HS02004792HS02004799 CONDUIT    237.06     0  03:01      0.95    0.15    0.36
  HS02004788HS02004792 CONDUIT    135.44     0  03:01      1.06    0.09    0.18
  HS02004785HS02004788 CONDUIT    103.22     0  03:02      0.71    0.78    0.21
  HS02004777HS02004785 CONDUIT    103.38     0  03:01      0.42    0.13    0.35
  HS02004480HS02004478 CONDUIT    302.31     0  03:01      1.26    1.27    0.34
  HS02004479HS02004480 CONDUIT     46.30     0  03:02      0.32    0.04    0.43
  HS02004862HS02004870 CONDUIT     47.43     0  03:01      0.66    0.05    0.10
  HS02004848HS02004852 CONDUIT     21.94     0  03:01      0.45    0.02    0.07
  HS02004856HS02004862 CONDUIT     32.48     0  03:01      0.48    0.03    0.10
  HS02004852HS02004856 CONDUIT     21.85     0  03:02      0.25    0.02    0.13
  HS02004802HS02004478 CONDUIT    111.52     0  03:02      0.45    0.10    0.36
  HS02004478WS02006287 CONDUIT    413.25     0  03:01      1.75    0.12    0.26
  HS02004817HS02004807 CONDUIT     86.14     0  03:01      0.19    0.05    0.63
  HS02004807HS02004802 CONDUIT    111.37     0  03:01      0.38    0.21    0.42
  YS02001759YS02001757 CONDUIT    572.74     0  02:39      0.73    0.41    1.00
  YS02001762YS02001759 CONDUIT    291.41     0  02:38      0.37    0.34    1.00
  YS02001765YS02001762 CONDUIT    291.02     0  02:38      0.37    0.27    1.00
  YS02001770YS02001767 CONDUIT    290.52     0  02:38      0.37    1.15    1.00
  YS02001774YS02001770 CONDUIT    535.94     0  03:01      0.68    0.34    1.00
  YS02001779YS02001774 CONDUIT    536.22     0  03:01      0.68    0.27    1.00
  YS02001649YS02001757 CONDUIT    826.23     0  02:35      1.05    0.50    1.00
  YS02001767YS02001765 CONDUIT    290.85     0  02:38      0.37    0.37    1.00
  YS02006561YS02001783 CONDUIT    981.39     0  03:19      2.15    0.51    1.00
  YS02001783YS02001784 CONDUIT    981.47     0  03:19      1.95    1.35    1.00
  YS02001784YS02001785 CONDUIT    982.32     0  03:19      1.95    2.29    1.00
  YS02001788YS02001790 CONDUIT    982.45     0  03:17      2.44    0.72    1.00
  YS02001790YS02001791 CONDUIT    982.60     0  03:17      2.92    1.07    1.00
  YS02001791YS02001793 CONDUIT    982.85     0  03:17      5.84    0.42    1.00
  YS02001910YS02001907 CONDUIT    455.61     0  03:00      0.58    0.26    1.00
  YS02001786YS02001788 CONDUIT    982.48     0  03:19      2.31    1.89    1.00
  YS02001915YS02001910 CONDUIT    455.57     0  03:00      0.59    0.23    1.00
  YS02001918YS02001915 CONDUIT    246.39     0  03:31      0.44    0.14    1.00
  YS02001923YS02001920 CONDUIT    212.19     0  02:47      0.71    0.10    1.00
  YS02001926YS02001923 CONDUIT    237.42     0  02:47      0.83    0.34    0.89
  YS02001929YS02001926 CONDUIT    197.77     0  02:47      0.89    0.09    0.79
  YS02001920YS02001918 CONDUIT    215.31     0  02:47      0.70    0.21    1.00
  YS02001629YS02163301 CONDUIT    200.83     0  02:28      0.26    0.25    1.00
  YS02001619YS02001622 CONDUIT    291.17     0  03:01      0.61    0.43    1.00
  YS02001622YS02001625 CONDUIT    290.67     0  03:01      0.37    0.16    1.00
  YS02001625YS02001629 CONDUIT    214.32     0  02:17      0.28    0.10    1.00
  YS02163301YS02001633 CONDUIT    204.63     0  02:28      0.26    0.19    1.00
  YS02163601YS02164001 CONDUIT    398.62     0  02:35      0.51    0.35    1.00
  YS02164001YS02001641 CONDUIT    400.78     0  02:28      0.51    0.55    1.00
  YS02001641YS02001644 CONDUIT    404.79     0  02:28      0.52    1.31    1.00
  YS02001647YS02001649 CONDUIT    607.16     0  03:01      0.77    0.32    1.00
  YS02006553YS02006556 CONDUIT    704.56     0  03:31      0.90    0.60    1.00
  YS02006556YS02006558 CONDUIT    704.69     0  03:31      0.90    0.56    1.00
  YSB6556YSB1171       CONDUIT     25.76     0  03:03      0.09    0.03    0.70
  YS02001907YS02006553 CONDUIT    704.54     0  03:31      0.78    0.83    1.00
  YS02006558YS02006561 CONDUIT    981.68     0  03:19      3.47    2.17    1.00
  YS02001633YS02163601 CONDUIT    397.79     0  02:35      0.51    0.42    1.00
  YS02001644YS02001647 CONDUIT    608.83     0  03:01      0.78    0.36    1.00
  YS02001745YS02001748 CONDUIT    536.34     0  02:27      1.47    0.21    0.96
  YS02001748YS02001751 CONDUIT    357.20     0  02:17      1.06    0.18    1.00
  YS02001751YS02001754 CONDUIT    344.25     0  03:01      0.92    0.17    1.00
  YS02001754YS02001757 CONDUIT    344.65     0  03:01      0.44    0.14    1.00
  YS02001882YS02001884 CONDUIT     34.46     0  02:39      0.13    0.04    1.00
  YS02001884YS02001887 CONDUIT     69.24     0  02:38      0.09    0.09    1.00
  YS02001890YS02001895 CONDUIT    495.09     0  03:01      0.63    0.23    1.00
  YS02001895YS02001898 CONDUIT    496.05     0  03:01      0.63    0.86    1.00
  YS02001898YS02001901 CONDUIT    496.15     0  03:01      0.63    0.32    1.00
  YS02001901YS02001904 CONDUIT    495.63     0  03:01      0.63    0.77    1.00
  YS02001904YS02001907 CONDUIT    496.44     0  03:01      0.63    0.17    1.00
  YS02001887YS02001890 CONDUIT    495.57     0  03:01      0.63    0.85    1.00
  YS02001652YS02001649 CONDUIT    379.60     0  03:01      0.63    0.19    1.00
  YS02001655YS02001652 CONDUIT    379.38     0  03:01      0.98    0.18    1.00
  YS02001658YS02001655 CONDUIT    399.55     0  02:19      1.22    0.17    1.00
  YS02001661YS02001658 CONDUIT    608.09     0  02:23      1.55    0.24    1.00
  YS02001664YS02001661 CONDUIT    621.55     0  02:39      1.43    0.19    0.75
  YSB1154YSB6556       CONDUIT     25.82     0  03:01      0.17    0.05    0.59
  YSB1174YSB1171       CONDUIT     20.15     0  03:01      0.07    0.03    0.70
  YSB1171HS02004479    CONDUIT     44.91     0  03:02      0.54    0.03    0.55
  HS02004881HS02006253 CONDUIT    129.32     0  02:58      2.15    0.03    0.54
  YS02001793JiankangQianchi CONDUIT    983.17     0  03:19     16.46    0.08    1.00
  YS02001757CaochengTiaoxuchi CONDUIT   1578.74     0  02:35      2.02    0.69    1.00
  WSF200WS02003060     CONDUIT    828.64     0  03:05      1.86    0.18    0.42
  1                    CONDUIT   1214.92     0  03:09      3.50    0.42    0.45
  CC-Pump-1            PUMP       200.00     0  03:00              1.00
  CC-Pump-2            PUMP       200.00     0  04:30              1.00
  JK-Pump-1            PUMP       300.00     0  02:10              1.00
  JK-Pump-2            PUMP       683.00     0  02:10              1.00
  XR-Pump-1            PUMP        95.00     0  00:00              1.00
  XR-Pump-2            PUMP        95.00     0  00:00              1.00
  XR-Pump-3            PUMP        95.00     0  00:00              1.00
  XR-Pump-4            PUMP        95.00     0  00:00              1.00
  
  
  ***************************
  Flow Classification Summary
  ***************************
  
  -------------------------------------------------------------------------------------
                      Adjusted    ---------- Fraction of Time in Flow Class ---------- 
                       /Actual         Up    Down  Sub   Sup   Up    Down  Norm  Inlet 
  Conduit               Length    Dry  Dry   Dry   Crit  Crit  Crit  Crit  Ltd   Ctrl  
  -------------------------------------------------------------------------------------
  WS02003066WSF200        1.00   0.01  0.03  0.00  0.00  0.96  0.00  0.00  0.66  0.00
  WS02006287WS02006284    1.00   0.03  0.01  0.00  0.59  0.36  0.00  0.00  0.62  0.00
  WS02006284WS02006280    1.00   0.04  0.00  0.00  0.00  0.00  0.00  0.96  0.00  0.00
  WS02006280WS02006229    1.00   0.04  0.00  0.00  0.00  0.02  0.00  0.94  0.02  0.00
  WS02006229WS02006228    1.00   0.00  0.00  0.00  1.00  0.00  0.00  0.00  0.00  0.00
  WS02006256WS02006235    1.00   0.01  0.00  0.00  0.99  0.00  0.00  0.00  0.00  0.00
  WS02006253WS02006251    1.00   0.01  0.02  0.00  0.95  0.00  0.01  0.00  0.00  0.00
  WS02006252WS02006251    1.00   0.20  0.00  0.00  0.05  0.00  0.75  0.00  0.00  0.00
  WS02006251WS02006249    1.00   0.00  0.00  0.00  1.00  0.00  0.00  0.00  0.34  0.00
  WS02006249WS02006248    1.00   0.00  0.00  0.00  0.86  0.00  0.13  0.00  0.00  0.00
  WS02006248WS02006247    1.00   0.01  0.00  0.00  0.98  0.00  0.00  0.02  0.23  0.00
  WS02006247WS02006245    1.00   0.01  0.00  0.00  0.97  0.00  0.00  0.02  0.00  0.00
  WS02006245WS02006243    1.00   0.01  0.00  0.00  0.95  0.00  0.00  0.04  0.01  0.00
  WS02006243WS02006242    1.00   0.01  0.00  0.00  0.98  0.00  0.00  0.00  0.26  0.00
  WS02006242WS02006240    1.00   0.01  0.00  0.00  0.99  0.00  0.00  0.00  0.00  0.00
  WS02006240WS02006239    1.00   0.01  0.00  0.00  0.93  0.00  0.00  0.05  0.01  0.00
  WS02006239WS02006238    1.00   0.01  0.00  0.00  0.99  0.00  0.00  0.00  0.10  0.00
  WS02006238WS02006235    1.00   0.01  0.00  0.00  0.99  0.00  0.00  0.00  0.00  0.00
  WS02006235WS02006234    1.00   0.01  0.00  0.00  0.96  0.00  0.03  0.00  0.00  0.00
  WS02006234WS02006232    1.00   0.01  0.00  0.00  0.99  0.00  0.00  0.00  0.03  0.00
  WS02006232WS02006231    1.00   0.01  0.00  0.00  0.98  0.00  0.00  0.00  0.00  0.00
  WS02006231WS02006230    1.00   0.01  0.00  0.00  0.62  0.00  0.36  0.00  0.00  0.00
  WS02006230WS02006229    1.00   0.00  0.00  0.00  0.99  0.00  0.00  0.01  0.00  0.00
  WS02006228WS02006109    1.00   0.00  0.00  0.00  1.00  0.00  0.00  0.00  0.00  0.00
  WS02006116WS02004401    1.00   0.02  0.00  0.00  0.98  0.00  0.00  0.00  0.00  0.00
  WS02006115WS02006116    1.00   0.02  0.00  0.00  0.98  0.00  0.00  0.00  0.00  0.00
  WS02006113WS02006111    1.00   0.02  0.00  0.00  0.02  0.96  0.00  0.00  0.19  0.00
  WS02006112WS02006115    1.00   0.02  0.00  0.00  0.98  0.00  0.00  0.00  0.00  0.00
  WS02006111WS02006112    1.00   0.02  0.00  0.00  0.98  0.00  0.00  0.00  0.89  0.00
  WS02006110WS02006113    1.00   0.00  0.01  0.00  0.98  0.00  0.00  0.00  0.00  0.00
  WS02006109WS02006110    1.00   0.00  0.00  0.00  0.99  0.00  0.00  0.00  0.00  0.00
  WS02004411WS02004412    1.00   0.03  0.00  0.00  0.97  0.00  0.00  0.00  0.00  0.00
  WS02004401WS02004402    1.00   0.02  0.00  0.00  0.98  0.00  0.00  0.00  0.00  0.00
  WS02004413WS02003067    1.00   0.03  0.00  0.00  0.00  0.00  0.96  0.00  0.00  0.00
  WS02004412WS02004413    1.00   0.03  0.00  0.00  0.97  0.00  0.00  0.00  0.00  0.00
  WS02004410WS02004411    1.00   0.03  0.00  0.00  0.97  0.00  0.00  0.00  0.00  0.00
  WS02004409WS02004410    1.00   0.03  0.00  0.00  0.97  0.00  0.00  0.00  0.00  0.00
  WS02004407WS02004409    1.00   0.03  0.00  0.00  0.97  0.00  0.00  0.00  0.91  0.00
  WS02004406WS02004407    1.00   0.00  0.03  0.00  0.97  0.00  0.00  0.00  0.00  0.00
  WS02004405WS02004406    1.00   0.00  0.00  0.00  1.00  0.00  0.00  0.00  0.04  0.00
  WS02004404WS02004405    1.00   0.00  0.00  0.00  1.00  0.00  0.00  0.00  0.00  0.00
  WS02004403WS02004404    1.00   0.00  0.02  0.00  0.98  0.00  0.00  0.00  0.00  0.00
  WS02004402WS02004403    1.00   0.02  0.00  0.00  0.98  0.00  0.00  0.00  0.00  0.00
  WS02004139WS02001211    1.00   0.00  0.00  0.00  1.00  0.00  0.00  0.00  0.00  0.00
  WS02004138WS02004139    1.00   0.00  0.00  0.00  1.00  0.00  0.00  0.00  1.00  0.00
  WS02003067WS02003066    1.00   0.04  0.00  0.00  0.96  0.00  0.00  0.00  0.00  0.00
  WS02001213WS02003059    1.00   0.00  0.00  0.00  1.00  0.00  0.00  0.00  0.00  0.00
  WS02001212WS02001213    1.00   0.00  0.00  0.00  0.92  0.00  0.08  0.00  0.00  0.00
  WS02001211WS02001212    1.00   0.00  0.00  0.00  1.00  0.00  0.00  0.00  0.00  0.00
  WS02003072WS02003073    1.00   0.00  0.00  0.00  0.00  0.00  0.00  1.00  0.00  0.00
  WS02003069WS02003072    1.00   0.00  0.00  0.00  1.00  0.00  0.00  0.00  0.09  0.00
  WS02003060WS02003069    1.00   0.00  0.00  0.00  0.99  0.01  0.00  0.00  0.07  0.00
  WS02003059WS02003060    1.00   0.00  0.00  0.00  1.00  0.00  0.00  0.00  0.00  0.00
  HS02004901HS02004770    1.00   0.04  0.00  0.00  0.96  0.00  0.00  0.00  0.00  0.00
  HS02004876HS02004881    1.00   0.01  0.00  0.00  0.92  0.08  0.00  0.00  0.00  0.00
  HS02004870HS02004876    1.00   0.00  0.00  0.00  1.00  0.00  0.00  0.00  0.95  0.00
  HS02004842HS02004848    1.00   0.00  0.04  0.00  0.96  0.00  0.00  0.00  0.55  0.00
  HS02004837HS02004842    1.00   0.00  0.00  0.00  1.00  0.00  0.00  0.00  0.11  0.00
  HS02004830HS02004837    1.00   0.00  0.00  0.00  1.00  0.00  0.00  0.00  0.99  0.00
  HS02004824HS02004830    1.00   0.00  0.00  0.00  1.00  0.00  0.00  0.00  0.00  0.00
  HS02004817HS02004824    1.00   0.00  0.00  0.00  1.00  0.00  0.00  0.00  1.00  0.00
  HS02004770HS02004777    1.00   0.00  0.04  0.00  0.96  0.00  0.00  0.00  0.02  0.00
  HS02004799HS02004480    1.00   0.00  0.01  0.00  0.95  0.00  0.04  0.00  0.00  0.00
  HS02004792HS02004799    1.00   0.00  0.00  0.00  1.00  0.00  0.00  0.00  0.98  0.00
  HS02004788HS02004792    1.00   0.00  0.00  0.00  1.00  0.00  0.00  0.00  0.98  0.00
  HS02004785HS02004788    1.00   0.00  0.00  0.00  1.00  0.00  0.00  0.00  0.00  0.00
  HS02004777HS02004785    1.00   0.00  0.00  0.00  1.00  0.00  0.00  0.00  0.12  0.00
  HS02004480HS02004478    1.00   0.04  0.00  0.00  0.67  0.00  0.00  0.29  0.00  0.00
  HS02004479HS02004480    1.00   0.01  0.00  0.00  0.99  0.00  0.00  0.00  0.11  0.00
  HS02004862HS02004870    1.00   0.00  0.00  0.00  1.00  0.00  0.00  0.00  0.03  0.00
  HS02004848HS02004852    1.00   0.04  0.00  0.00  0.96  0.00  0.00  0.00  0.62  0.00
  HS02004856HS02004862    1.00   0.00  0.05  0.00  0.95  0.00  0.00  0.00  0.83  0.00
  HS02004852HS02004856    1.00   0.04  0.00  0.00  0.96  0.00  0.00  0.00  0.85  0.00
  HS02004802HS02004478    1.00   0.04  0.00  0.00  0.96  0.00  0.00  0.00  0.02  0.00
  HS02004478WS02006287    1.00   0.05  0.00  0.00  0.73  0.22  0.00  0.00  0.64  0.00
  HS02004817HS02004807    1.00   0.00  0.04  0.00  0.96  0.00  0.00  0.00  0.01  0.00
  HS02004807HS02004802    1.00   0.04  0.00  0.00  0.95  0.00  0.00  0.00  0.00  0.00
  YS02001759YS02001757    1.00   0.00  0.00  0.00  1.00  0.00  0.00  0.00  0.16  0.00
  YS02001762YS02001759    1.00   0.00  0.00  0.00  1.00  0.00  0.00  0.00  0.03  0.00
  YS02001765YS02001762    1.00   0.00  0.00  0.00  1.00  0.00  0.00  0.00  0.13  0.00
  YS02001770YS02001767    1.00   0.00  0.00  0.00  1.00  0.00  0.00  0.00  0.00  0.00
  YS02001774YS02001770    1.00   0.00  0.04  0.00  0.96  0.00  0.00  0.00  0.03  0.00
  YS02001779YS02001774    1.00   0.00  0.00  0.00  1.00  0.00  0.00  0.00  0.18  0.00
  YS02001649YS02001757    1.00   0.00  0.00  0.00  1.00  0.00  0.00  0.00  0.16  0.00
  YS02001767YS02001765    1.00   0.00  0.00  0.00  1.00  0.00  0.00  0.00  0.00  0.00
  YS02006561YS02001783    1.00   0.06  0.00  0.00  0.34  0.60  0.00  0.00  0.49  0.00
  YS02001783YS02001784    1.00   0.00  0.06  0.00  0.94  0.00  0.00  0.00  0.00  0.00
  YS02001784YS02001785    1.00   0.00  0.00  0.00  1.00  0.00  0.00  0.00  0.17  0.00
  YS02001788YS02001790    1.00   0.00  0.00  0.00  0.36  0.64  0.00  0.00  0.38  0.00
  YS02001790YS02001791    1.00   0.00  0.00  0.00  0.31  0.69  0.00  0.00  0.46  0.00
  YS02001791YS02001793    1.00   0.00  0.00  0.00  0.34  0.66  0.00  0.00  0.03  0.00
  YS02001910YS02001907    1.00   0.00  0.00  0.00  0.99  0.00  0.00  0.01  0.12  0.00
  YS02001786YS02001788    1.00   0.00  0.00  0.00  0.34  0.66  0.00  0.00  0.00  0.00
  YS02001915YS02001910    1.00   0.00  0.00  0.00  0.99  0.01  0.00  0.00  0.15  0.00
  YS02001918YS02001915    1.00   0.00  0.00  0.00  0.99  0.00  0.00  0.00  0.55  0.00
  YS02001923YS02001920    1.00   0.00  0.00  0.00  1.00  0.00  0.00  0.00  0.84  0.00
  YS02001926YS02001923    1.00   0.00  0.02  0.00  0.13  0.00  0.84  0.00  0.00  0.00
  YS02001929YS02001926    1.00   0.00  0.04  0.00  0.96  0.00  0.00  0.00  0.77  0.00
  YS02001920YS02001918    1.00   0.00  0.00  0.00  1.00  0.00  0.00  0.00  0.00  0.00
  YS02001629YS02163301    1.00   0.05  0.00  0.00  0.95  0.00  0.00  0.00  0.00  0.00
  YS02001619YS02001622    1.00   0.04  0.00  0.00  0.96  0.00  0.00  0.00  0.00  0.00
  YS02001622YS02001625    1.00   0.04  0.00  0.00  0.96  0.00  0.00  0.00  0.04  0.00
  YS02001625YS02001629    1.00   0.04  0.02  0.00  0.92  0.00  0.02  0.00  0.00  0.00
  YS02163301YS02001633    1.00   0.00  0.05  0.00  0.95  0.00  0.00  0.00  0.00  0.00
  YS02163601YS02164001    1.00   0.00  0.03  0.00  0.97  0.00  0.00  0.00  0.00  0.00
  YS02164001YS02001641    1.00   0.00  0.03  0.00  0.97  0.00  0.00  0.00  0.06  0.00
  YS02001641YS02001644    1.00   0.00  0.00  0.00  1.00  0.00  0.00  0.00  0.00  0.00
  YS02001647YS02001649    1.00   0.00  0.05  0.00  0.95  0.00  0.00  0.00  0.01  0.00
  YS02006553YS02006556    1.00   0.00  0.00  0.00  1.00  0.00  0.00  0.00  0.03  0.00
  YS02006556YS02006558    1.00   0.00  0.00  0.00  1.00  0.00  0.00  0.00  0.00  0.00
  YSB6556YSB1171          1.00   0.01  0.03  0.00  0.96  0.00  0.00  0.00  0.00  0.00
  YS02001907YS02006553    1.00   0.00  0.01  0.00  0.99  0.00  0.00  0.00  0.00  0.00
  YS02006558YS02006561    1.00   0.06  0.00  0.00  0.13  0.81  0.00  0.00  0.49  0.00
  YS02001633YS02163601    1.00   0.00  0.00  0.00  1.00  0.00  0.00  0.00  0.15  0.00
  YS02001644YS02001647    1.00   0.00  0.05  0.00  0.95  0.00  0.00  0.00  0.00  0.00
  YS02001745YS02001748    1.00   0.00  0.00  0.00  0.90  0.01  0.00  0.09  0.04  0.00
  YS02001748YS02001751    1.00   0.00  0.00  0.00  0.97  0.03  0.00  0.00  0.15  0.00
  YS02001751YS02001754    1.00   0.00  0.00  0.00  0.94  0.00  0.00  0.06  0.02  0.00
  YS02001754YS02001757    1.00   0.00  0.00  0.00  1.00  0.00  0.00  0.00  0.18  0.00
  YS02001882YS02001884    1.00   0.05  0.00  0.00  0.95  0.00  0.00  0.00  0.00  0.00
  YS02001884YS02001887    1.00   0.02  0.02  0.00  0.96  0.00  0.00  0.00  0.00  0.00
  YS02001890YS02001895    1.00   0.00  0.05  0.00  0.95  0.00  0.00  0.00  0.00  0.00
  YS02001895YS02001898    1.00   0.05  0.00  0.00  0.94  0.00  0.01  0.00  0.00  0.00
  YS02001898YS02001901    1.00   0.05  0.00  0.00  0.95  0.00  0.00  0.00  0.01  0.00
  YS02001901YS02001904    1.00   0.05  0.00  0.00  0.95  0.00  0.00  0.00  0.00  0.00
  YS02001904YS02001907    1.00   0.00  0.05  0.00  0.95  0.00  0.00  0.00  0.00  0.00
  YS02001887YS02001890    1.00   0.00  0.00  0.00  0.99  0.00  0.01  0.00  0.00  0.00
  YS02001652YS02001649    1.00   0.00  0.00  0.00  1.00  0.00  0.00  0.00  0.16  0.00
  YS02001655YS02001652    1.00   0.00  0.00  0.00  0.94  0.00  0.00  0.06  0.02  0.00
  YS02001658YS02001655    1.00   0.00  0.04  0.00  0.92  0.03  0.00  0.00  0.08  0.00
  YS02001661YS02001658    1.00   0.04  0.00  0.00  0.90  0.05  0.00  0.00  0.09  0.00
  YS02001664YS02001661    1.00   0.04  0.00  0.00  0.91  0.05  0.00  0.00  0.19  0.00
  YSB1154YSB6556          1.00   0.04  0.00  0.00  0.96  0.00  0.00  0.00  0.01  0.00
  YSB1174YSB1171          1.00   0.01  0.02  0.00  0.97  0.00  0.00  0.00  0.00  0.00
  YSB1171HS02004479       1.00   0.01  0.00  0.00  0.98  0.00  0.00  0.00  0.10  0.00
  HS02004881HS02006253    1.00   0.02  0.00  0.00  0.49  0.02  0.00  0.47  0.31  0.00
  YS02001793JiankangQianchi    1.00   0.00  0.00  0.00  0.70  0.29  0.00  0.00  0.45  0.00
  YS02001757CaochengTiaoxuchi    1.00   0.00  0.08  0.00  0.92  0.00  0.00  0.00  0.00  0.00
  WSF200WS02003060        1.00   0.00  0.01  0.00  0.99  0.00  0.00  0.00  0.53  0.00
  1                       1.00   0.00  0.00  0.00  0.00  1.00  0.00  0.00  0.53  0.00
  
  
  *************************
  Conduit Surcharge Summary
  *************************
  
  ----------------------------------------------------------------------------
                                                           Hours        Hours 
                         --------- Hours Full --------   Above Full   Capacity
  Conduit                Both Ends  Upstream  Dnstream   Normal Flow   Limited
  ----------------------------------------------------------------------------
  WS02006229WS02006228        2.62      2.76      2.62      3.76         2.62
  WS02006256WS02006235        5.33      5.33      6.76      4.19         0.01
  WS02006253WS02006251        0.65      0.66      0.70      0.01         0.01
  WS02006252WS02006251        0.57      0.57      0.94      0.75         0.01
  WS02006251WS02006249        0.66      0.67      0.72      0.40         0.22
  WS02006249WS02006248        0.67      0.67      0.72      1.78         0.01
  WS02006248WS02006247        0.71      0.71      0.81      0.01         0.01
  WS02006247WS02006245        0.80      0.84      0.80      2.33         0.76
  WS02006245WS02006243        0.82      0.83      0.90      0.22         0.09
  WS02006243WS02006242        0.96      0.96      1.32      0.01         0.01
  WS02006242WS02006240        1.20      1.20      1.41      0.58         0.01
  WS02006240WS02006239        1.23      1.24      1.32      0.26         0.13
  WS02006239WS02006238        1.54      1.57      1.87      0.27         0.17
  WS02006238WS02006235        1.83      1.83      2.08      0.01         0.01
  WS02006235WS02006234        1.44      1.44      1.71      5.24         0.01
  WS02006234WS02006232        1.61      1.61      2.34      0.11         0.12
  WS02006232WS02006231        0.73      0.73      2.34      0.18         0.01
[...]
  YS02001765YS02001762        5.84      5.84      5.87      0.01         0.01
  YS02001770YS02001767        5.81      5.81      5.81      0.19         0.72
  YS02001774YS02001770        5.80      5.80      5.86      0.01         0.01
  YS02001779YS02001774        5.68      5.68      5.86      0.01         0.01
  YS02001649YS02001757        5.87      5.87      5.98      0.01         0.01
  YS02001767YS02001765        5.81      5.81      5.84      0.01         0.01
  YS02006561YS02001783        0.75      0.75      1.00      0.01         0.01
  YS02001783YS02001784        0.98      1.00      0.98      1.41         0.97
  YS02001784YS02001785        0.92      0.98      0.92      2.41         0.92
  YS02001788YS02001790        0.87      0.87      1.86      0.01         0.01
  YS02001790YS02001791        1.86      1.86      1.98      0.86         0.83
  YS02001791YS02001793        1.98      1.98      2.39      0.01         0.01
  YS02001910YS02001907        1.05      1.05      1.81      0.01         0.01
  YS02001786YS02001788        0.87      0.92      0.87      1.99         0.87
  YS02001915YS02001910        0.87      0.87      1.05      0.01         0.01
  YS02001918YS02001915        0.70      0.70      0.87      0.01         0.01
  YS02001923YS02001920        0.53      0.53      0.73      0.01         0.01
  YS02001920YS02001918        0.70      0.70      0.73      0.01         0.01
  YS02001629YS02163301        5.80      5.80      5.81      0.01         0.01
  YS02001619YS02001622        5.48      5.48      5.51      0.01         0.01
  YS02001622YS02001625        5.51      5.51      5.76      0.01         0.01
  YS02001625YS02001629        5.49      5.49      5.76      0.01         0.01
  YS02163301YS02001633        5.81      5.81      5.84      0.01         0.01
  YS02163601YS02164001        5.84      5.84      5.87      0.01         0.01
  YS02164001YS02001641        5.84      5.84      5.85      0.01         0.03
  YS02001641YS02001644        5.85      5.85      5.85      1.52         1.51
  YS02001647YS02001649        5.75      5.75      5.87      0.01         0.01
  YS02006553YS02006556        1.30      1.30      1.88      0.01         0.01
  YS02006556YS02006558        1.55      1.55      1.96      0.01         0.01
  YS02001907YS02006553        2.41      2.41      2.64      0.01         0.01
  YS02006558YS02006561        0.88      1.26      0.88      2.23         0.88
  YS02001633YS02163601        5.83      5.83      5.87      0.01         0.01
  YS02001644YS02001647        5.75      5.75      5.85      0.01         0.01
  YS02001745YS02001748        0.01      0.01      5.30      0.01         0.01
  YS02001748YS02001751        5.36      5.36      5.49      0.01         0.01
  YS02001751YS02001754        5.49      5.49      5.70      0.01         0.01
  YS02001754YS02001757        5.74      5.74      5.98      0.01         0.01
  YS02001882YS02001884        0.88      0.88      0.91      0.01         0.01
  YS02001884YS02001887        0.95      0.95      0.97      0.01         0.01
  YS02001890YS02001895        0.86      0.86      1.07      0.01         0.01
  YS02001895YS02001898        0.85      0.85      0.86      0.01         0.01
  YS02001898YS02001901        0.87      0.87      0.94      0.01         0.01
  YS02001901YS02001904        0.92      0.92      0.94      0.01         0.01
  YS02001904YS02001907        0.92      0.92      1.91      0.01         0.01
  YS02001887YS02001890        1.00      1.00      1.03      0.01         0.01
  YS02001652YS02001649        5.76      5.76      5.87      0.01         0.01
  YS02001655YS02001652        5.51      5.51      5.73      0.01         0.01
  YS02001658YS02001655        5.33      5.33      5.51      0.01         0.01
  YS02001661YS02001658        0.16      0.16      5.33      0.01         0.01
  YS02001664YS02001661        0.01      0.01      1.14      0.01         0.01
  HS02004881HS02006253        0.01      0.01      0.26      0.01         0.01
  YS02001793JiankangQianchi        2.28      2.28      4.56      0.01         0.01
  YS02001757CaochengTiaoxuchi        5.21      5.21      5.98      0.01         0.01
  
  
  ***************
  Pumping Summary
  ***************
  
  ---------------------------------------------------------------------------------------------------------
                                                  Min       Avg       Max     Total     Power    % Time Off
                        Percent   Number of      Flow      Flow      Flow    Volume     Usage    Pump Curve
  Pump                 Utilized   Start-Ups       LPS       LPS       LPS  10^6 ltr     Kw-hr    Low   High
  ---------------------------------------------------------------------------------------------------------
  CC-Pump-1               42.53           6      0.00    142.50    200.00     1.620      1.34    0.0    0.0
  CC-Pump-2               19.14           4      0.00    105.16    200.00     0.600      0.68    0.0    0.0
  JK-Pump-1               57.45           5      0.00    226.99    300.00     3.510     54.44    0.0    0.0
  JK-Pump-2               48.93           4      0.00    421.40    683.00     5.640     81.54    0.0   95.1
  XR-Pump-1              100.00           1      0.00     93.84     95.00     2.622     26.88    0.0    0.0
  XR-Pump-2               97.87           2      0.00     91.81     95.00     2.451     23.24    0.0    0.0
  XR-Pump-3               97.87           2      0.00     91.81     95.00     2.451     23.24    0.0    0.0
  XR-Pump-4               97.87           2      0.00     91.81     95.00     2.451     23.24    0.0    0.0
  
  
  ***************************
  Link Pollutant Load Summary
  ***************************
  
  ------------------------------------------------------------------------------------------
                                 COD            SS            TN            TP         NH4-N
  Link                            kg            kg            kg            kg            kg
  ------------------------------------------------------------------------------------------
  WS02003066WSF200           673.550      1242.566        18.482         1.658         9.836
  WS02006287WS02006284       268.063       498.223         9.346         0.943         5.214
  WS02006284WS02006280       268.549       499.005         9.393         0.949         5.243
  WS02006280WS02006229       268.510       498.934         9.391         0.948         5.242
  WS02006229WS02006228       674.540      1244.751        18.140         1.606         9.605
  WS02006256WS02006235       193.037       353.504         4.226         0.326         2.132
  WS02006253WS02006251        51.485        99.402         1.142         0.085         0.566
  WS02006252WS02006251       190.173       345.238         4.002         0.292         1.973
  WS02006251WS02006249       234.259       431.205         4.997         0.367         2.469
  WS02006249WS02006248       222.639       409.680         4.752         0.349         2.348
  WS02006248WS02006247       222.487       409.413         4.753         0.350         2.349
  WS02006247WS02006245       221.928       408.406         4.740         0.349         2.343
  WS02006245WS02006243       221.331       407.377         4.724         0.347         2.335
  WS02006243WS02006242       221.026       406.784         4.728         0.348         2.338
  WS02006242WS02006240       221.016       406.651         4.726         0.348         2.337
  WS02006240WS02006239       221.969       408.253         4.755         0.350         2.352
  WS02006239WS02006238       224.016       411.658         4.821         0.357         2.389
  WS02006238WS02006235       225.544       414.209         4.864         0.361         2.412
  WS02006235WS02006234       410.513       753.849         8.862         0.667         4.422
  WS02006234WS02006232       409.811       752.547         8.852         0.666         4.418
  WS02006232WS02006231       408.894       750.918         8.830         0.665         4.407
  WS02006231WS02006230       408.367       749.998         8.818         0.664         4.401
  WS02006230WS02006229       407.076       747.682         8.787         0.661         4.385
  WS02006228WS02006109       673.322      1242.568        18.104         1.603         9.586
  WS02006116WS02004401       682.337      1258.130        18.778         1.687        10.000
  WS02006115WS02006116       683.871      1260.869        18.825         1.691        10.026
  WS02006113WS02006111       678.376      1250.148        18.784         1.691        10.018
  WS02006112WS02006115       685.373      1263.512        18.882         1.697        10.058
  WS02006111WS02006112       677.585      1248.705        18.760         1.689        10.005
  WS02006110WS02006113       679.024      1251.262        18.812         1.694        10.034
  WS02006109WS02006110       680.614      1253.999        18.886         1.702        10.078
  WS02004411WS02004412       675.204      1245.387        18.580         1.670         9.895
  WS02004401WS02004402       680.828      1255.472        18.723         1.681         9.969
  WS02004413WS02003067       673.689      1242.816        18.489         1.659         9.840
  WS02004412WS02004413       674.705      1244.535        18.551         1.666         9.878
  WS02004410WS02004411       675.612      1246.091        18.601         1.672         9.907
  WS02004409WS02004410       676.155      1247.030        18.628         1.675         9.923
  WS02004407WS02004409       676.524      1247.682        18.641         1.676         9.931
  WS02004406WS02004407       676.527      1247.703        18.637         1.676         9.928
  WS02004405WS02004406       677.924      1250.097        18.712         1.684         9.972
  WS02004404WS02004405       678.692      1251.524        18.713         1.683         9.971
  WS02004403WS02004404       678.314      1251.035        18.633         1.672         9.919
  WS02004402WS02004403       679.488      1253.097        18.678         1.677         9.944
  WS02004139WS02001211      1405.457      2315.407       116.894        14.315        72.188
  WS02004138WS02004139      1411.764      2325.830       117.401        14.377        72.500
  WS02003067WS02003066       673.668      1242.772        18.488         1.659         9.840
  WS02001213WS02003059      1438.771      2368.000       120.302        14.745        74.328
  WS02001212WS02001213      1447.559      2382.444       121.034        14.834        74.780
  WS02001211WS02001212      1449.793      2386.070       121.232        14.859        74.903
  WS02003072WS02003073      2214.077      3772.742       148.743        17.651        90.397
  WS02003069WS02003072      2218.490      3779.919       149.129        17.698        90.637
  WS02003060WS02003069      2220.814      3783.811       149.301        17.719        90.742
  WS02003059WS02003060      1435.876      2363.161       120.086        14.718        74.196
  HS02004901HS02004770        10.270        19.478         0.195         0.015         0.091
  HS02004876HS02004881        37.318        72.581         0.843         0.062         0.416
  HS02004870HS02004876        28.161        54.630         0.678         0.051         0.338
  HS02004842HS02004848         5.467        10.277         0.115         0.008         0.053
  HS02004837HS02004842        10.071        17.580         0.584         0.067         0.347
  HS02004830HS02004837        65.638       112.702         4.556         0.546         2.785
  HS02004824HS02004830        66.388       113.905         4.628         0.555         2.829
  HS02004817HS02004824        88.205       156.975         5.083         0.584         3.051
  HS02004770HS02004777        39.297        75.468         0.819         0.055         0.377
  HS02004799HS02004480       131.415       245.381         3.680         0.335         1.933
  HS02004792HS02004799       119.090       220.671         3.497         0.327         1.853
  HS02004788HS02004792        68.399       126.862         2.388         0.235         1.309
  HS02004785HS02004788        40.734        77.763         0.969         0.074         0.471
  HS02004777HS02004785        40.060        76.668         0.909         0.067         0.434
  HS02004480HS02004478       165.959       312.611         4.243         0.375         2.196
  HS02004479HS02004480        38.151        72.985         0.884         0.079         0.462
  HS02004862HS02004870        21.016        40.118         0.536         0.043         0.270
  HS02004848HS02004852         8.058        15.280         0.167         0.011         0.077
  HS02004856HS02004862        14.072        27.342         0.284         0.019         0.133
  HS02004852HS02004856         8.064        15.291         0.167         0.011         0.077
  HS02004802HS02004478       102.887       186.891         5.162         0.575         3.055
  HS02004478WS02006287       268.261       498.555         9.363         0.945         5.224
  HS02004817HS02004807        86.888       154.861         4.956         0.568         2.972
  HS02004807HS02004802       103.114       187.246         5.194         0.580         3.075
  YS02001759YS02001757       305.339       554.626         6.129         0.424         2.996
  YS02001762YS02001759       156.231       283.634         3.319         0.233         1.642
  YS02001765YS02001762       157.401       286.550         3.363         0.237         1.666
  YS02001770YS02001767       159.576       292.687         3.248         0.216         1.582
  YS02001774YS02001770       208.865       398.704         4.075         0.270         1.972
  YS02001779YS02001774       208.089       397.098         4.168         0.284         2.037
  YS02001649YS02001757       340.693       608.560         6.934         0.476         3.342
  YS02001767YS02001765       159.172       290.553         3.418         0.242         1.696
  YS02006561YS02001783       935.281      1715.080        19.822         1.488         9.894
  YS02001783YS02001784       935.155      1714.881        19.818         1.488         9.891
  YS02001784YS02001785       942.528      1726.707        20.532         1.577        10.338
  YS02001788YS02001790       943.114      1727.654        20.604         1.586        10.384
  YS02001790YS02001791       944.131      1729.301        20.704         1.599        10.446
  YS02001791YS02001793       944.040      1729.150        20.700         1.598        10.444
  YS02001910YS02001907       330.195       599.380         8.242         0.643         4.259
  YS02001786YS02001788       942.717      1727.021        20.559         1.581        10.355
  YS02001915YS02001910       330.285       599.519         8.198         0.637         4.230
  YS02001918YS02001915       160.464       279.013         4.679         0.435         2.548
  YS02001923YS02001920       137.901       241.921         2.687         0.190         1.310
  YS02001926YS02001923       136.825       240.126         2.613         0.181         1.264
  YS02001929YS02001926       136.180       239.049         2.555         0.174         1.228
  YS02001920YS02001918       158.366       274.830         4.610         0.429         2.510
  YS02001629YS02163301       103.442       183.283         2.169         0.140         1.011
  YS02001619YS02001622       146.385       262.914         3.031         0.197         1.414
  YS02001622YS02001625       145.244       261.116         3.003         0.195         1.401
  YS02001625YS02001629       104.523       185.069         2.193         0.141         1.022
  YS02163301YS02001633       103.164       182.814         2.162         0.140         1.009
  YS02163601YS02164001       361.981       646.095         7.115         0.502         3.403
  YS02164001YS02001641       361.509       645.306         7.095         0.500         3.392
  YS02001641YS02001644       361.739       645.618         7.094         0.500         3.391
  YS02001647YS02001649       398.120       718.458         8.019         0.554         3.845
  YS02006553YS02006556       656.739      1198.618        14.224         1.094         7.175
  YS02006556YS02006558       656.719      1198.571        14.192         1.090         7.154
  YSB6556YSB1171              21.956        42.203         0.451         0.038         0.229
  YS02001907YS02006553       656.882      1198.904        14.238         1.096         7.184
  YS02006558YS02006561       935.275      1715.064        19.822         1.488         9.893
  YS02001633YS02163601       362.671       647.162         7.094         0.498         3.386
  YS02001644YS02001647       403.585       728.388         8.100         0.559         3.881
  YS02001745YS02001748       209.745       385.928         4.702         0.327         2.345
  YS02001748YS02001751       208.282       383.021         4.788         0.342         2.407
  YS02001751YS02001754       207.324       381.459         4.770         0.341         2.399
  YS02001754YS02001757       208.098       382.627         4.934         0.363         2.505
  YS02001882YS02001884         2.715         4.685         0.055         0.004         0.027
  YS02001884YS02001887         6.970        12.354         0.136         0.011         0.068
  YS02001890YS02001895       389.465       720.653         7.189         0.539         3.508
  YS02001895YS02001898       389.292       720.418         7.183         0.539         3.505
  YS02001898YS02001901       389.082       720.060         7.178         0.538         3.502
  YS02001901YS02001904       388.917       719.820         7.184         0.540         3.507
  YS02001904YS02001907       389.142       720.165         7.238         0.547         3.542
  YS02001887YS02001890       390.268       721.852         7.244         0.546         3.541
  YS02001652YS02001649       157.315       287.652         3.209         0.231         1.504
  YS02001655YS02001652       158.181       289.023         3.232         0.232         1.515
  YS02001658YS02001655       157.942       288.604         3.152         0.221         1.461
  YS02001661YS02001658       162.714       297.064         3.249         0.228         1.506
  YS02001664YS02001661       177.791       322.068         3.585         0.251         1.660
  YSB1154YSB6556              21.536        41.535         0.403         0.032         0.199
  YSB1174YSB1171              14.654        28.291         0.298         0.024         0.149
  YSB1171HS02004479           38.110        72.919         0.888         0.079         0.465
  HS02004881HS02006253        42.281        82.541         0.932         0.068         0.459
  YS02001793JiankangQianchi       943.842      1728.781        20.675         1.595        10.428
  YS02001757CaochengTiaoxuchi       517.348       933.175        10.932         0.788         5.383
  WSF200WS02003060           673.628      1242.706        18.485         1.659         9.838
  1                         2219.579      3781.169       149.376        17.731        90.797
  CC-Pump-1                  137.765       249.972         2.892         0.210         1.424
  CC-Pump-2                   52.220        94.959         1.096         0.080         0.540
  JK-Pump-1                  230.931       425.699         4.925         0.374         2.467
  JK-Pump-2                  447.674       828.336         9.539         0.726         4.780
  XR-Pump-1                  379.895       624.636        31.913         3.914        19.725
  XR-Pump-2                  345.178       569.066        28.599         3.500        17.656
  XR-Pump-3                  345.178       569.066        28.599         3.500        17.656
  XR-Pump-4                  345.178       569.066        28.599         3.500        17.656
  

  Analysis begun on:  Thu Jul 15 08:12:55 2021
  Analysis ended on:  Thu Jul 15 08:12:58 2021
  Total elapsed time: 00:00:03