
  EPA STORM WATER MANAGEMENT MODEL - VERSION 5.1 (Build 5.3.0.dev0)
  --------------------------------------------------------------

  WARNING 04: minimum elevation drop used for Conduit WS02004404WS02004405
  WARNING 03: negative offset ignored for Link YS02001904YS02001907
  
  *********************************************************
  NOTE: The summary statistics displayed in this report are
  based on results found at every computational time step,  
  not just on results from each reporting time step.
  *********************************************************
  
  ****************
  Analysis Options
  ****************
  Flow Units ............... LPS
  Process Models:
    Rainfall/Runoff ........ YES
    RDII ................... NO
    Snowmelt ............... NO
    Groundwater ............ NO
    Flow Routing ........... YES
    Ponding Allowed ........ NO
    Water Quality .......... YES
  Infiltration Method ...... HORTON
  Flow Routing Method ...... DYNWAVE
  Surcharge Method ......... EXTRAN
  Starting Date ............ 08/28/2015 08:00:00
  Ending Date .............. 08/28/2015 15:50:00
  Antecedent Dry Days ...... 8.0
  Report Time Step ......... 00:01:00
  Wet Time Step ............ 00:01:00
  Dry Time Step ............ 00:01:00
  Routing Time Step ........ 5.00 sec
  Variable Time Step ....... YES
  Maximum Trials ........... 8
  Number of Threads ........ 4
  Head Tolerance ........... 0.001500 m
  
  
  **************************        Volume         Depth
  Runoff Quantity Continuity     hectare-m            mm
  **************************     ---------       -------
  Total Precipitation ......         5.556        12.164
  Evaporation Loss .........         0.000         0.000
  Infiltration Loss ........         1.002         2.194
  Surface Runoff ...........         3.688         8.075
  Final Storage ............         0.866         1.897
  Continuity Error (%) .....        -0.019
  
  
  **************************           COD            SS            TN            TP         NH4-N
  Runoff Quality Continuity             kg            kg            kg            kg            kg
  **************************    ----------    ----------    ----------    ----------    ----------
  Initial Buildup ..........     41378.656     70582.865      1804.177       168.684      1032.807
  Surface Buildup ..........        19.275        34.271         2.335         0.213         1.362
  Wet Deposition ...........         0.000         0.000         0.000         0.000         0.000
  Sweeping Removal .........         0.000         0.000         0.000         0.000         0.000
  Infiltration Loss ........        84.023       157.502         1.599         0.111         0.761
  BMP Removal ..............         0.000         0.000         0.000         0.000         0.000
  Surface Runoff ...........      3122.074      5752.154        60.620         4.098        28.771
  Remaining Buildup ........     38190.779     64705.500      1744.271       164.686      1004.628
  Continuity Error (%) .....         0.003         0.003         0.001         0.001         0.001
  
  
  **************************        Volume        Volume
  Flow Routing Continuity        hectare-m      10^6 ltr
  **************************     ---------     ---------
  Dry Weather Inflow .......         0.616         6.165
  Wet Weather Inflow .......         3.687        36.869
  Groundwater Inflow .......         0.000         0.000
  RDII Inflow ..............         0.000         0.000
  External Inflow ..........         0.102         1.024
  External Outflow .........         1.899        18.995
  Flooding Loss ............         2.089        20.894
  Evaporation Loss .........         0.000         0.000
  Exfiltration Loss ........         0.000         0.000
  Initial Stored Volume ....         0.076         0.761
  Final Stored Volume ......         0.635         6.354
  Continuity Error (%) .....        -3.181
  
  
  **************************           COD            SS            TN            TP         NH4-N
  Quality Routing Continuity            kg            kg            kg            kg            kg
  **************************    ----------    ----------    ----------    ----------    ----------
  Dry Weather Inflow .......      1541.201      2465.922       147.955        18.494        92.472
  Wet Weather Inflow .......      3121.091      5750.421        60.600         4.097        28.761
  Groundwater Inflow .......         0.000         0.000         0.000         0.000         0.000
  RDII Inflow ..............         0.000         0.000         0.000         0.000         0.000
  External Inflow ..........       183.418       293.469        17.608         2.201        11.005
  External Outflow .........      2272.231      3873.417       151.124        17.898        91.761
  Flooding Loss ............      1861.326      3409.628        47.607         4.108        24.946
  Exfiltration Loss ........         0.000         0.000         0.000         0.000         0.000
  Mass Reacted .............         0.000         0.000         0.000         0.000         0.000
  Initial Stored Mass ......         0.000         0.000         0.000         0.000         0.000
  Final Stored Mass ........       524.666       901.425        23.027         2.446        13.313
  Continuity Error (%) .....         3.869         3.823         1.948         1.369         1.678
  
  
  *************************
  Highest Continuity Errors
  *************************
  Node HS02004842 (14.53%)
  Node JK-storage (-14.30%)
  Node YS02001884 (11.33%)
  Node YSB1171 (2.74%)
  Node HS02004817 (2.73%)
  
  
  ***************************
  Time-Step Critical Elements
  ***************************
  Link WS02006252WS02006251 (69.13%)
  Link WS02006280WS02006229 (9.84%)
  Link WS02006238WS02006235 (5.16%)
  Link YS02001793JiankangQianchi (4.29%)
  Link YS02006556YS02006558 (1.94%)
  
  
  ********************************
  Highest Flow Instability Indexes
  ********************************
  Link WS02006113WS02006111 (45)
  Link YS02163301YS02001633 (43)
  Link YS02163601YS02164001 (43)
  Link YS02001629YS02163301 (42)
  Link YS02001619YS02001622 (42)
  
  
  *************************
  Routing Time Step Summary
  *************************
  Minimum Time Step           :     0.50 sec
  Average Time Step           :     1.18 sec
  Maximum Time Step           :     5.00 sec
  Percent in Steady State     :    -0.00
  Average Iterations per Step :     4.50
  Percent Not Converging      :    20.30
  
  
  ***************************
  Subcatchment Runoff Summary
  ***************************
  
  ------------------------------------------------------------------------------------------------------------------------------
                            Total      Total      Total      Total     Imperv       Perv      Total       Total     Peak  Runoff
                           Precip      Runon       Evap      Infil     Runoff     Runoff     Runoff      Runoff   Runoff   Coeff
  Subcatchment                 mm         mm         mm         mm         mm         mm         mm    10^6 ltr      LPS
  ------------------------------------------------------------------------------------------------------------------------------
  sub0                      12.16       0.00       0.00       0.65      11.27       0.20      11.47        0.01     1.99   0.943
  sub1                      12.16       0.00       0.00       1.12      10.73       0.22      10.95        0.07    14.96   0.900
  sub2                      12.16       0.00       0.00       4.23       7.58       0.27       7.85        0.07    15.08   0.646
  sub3                      12.16       0.00       0.00       4.29       7.54       0.21       7.75        0.17    34.61   0.637
  sub4                      12.16       0.00       0.00       1.19      10.57       0.14      10.71        0.22    42.34   0.881
  sub5                      12.16       0.00       0.00       0.69      11.21       0.16      11.38        0.13    26.18   0.935
  sub7                      12.16       0.00       0.00       0.88      11.01       0.22      11.22        0.04     7.95   0.923
  sub8                      12.16       0.00       0.00       0.89      11.00       0.21      11.20        0.07    14.89   0.921
  sub9                      12.16       0.00       0.00       0.89      10.99       0.21      11.20        0.05    11.18   0.921
  sub10                     12.16       0.00       0.00       0.79      11.10       0.18      11.28        0.12    25.49   0.928
  sub11                     12.16       0.00       0.00       0.78      11.12       0.19      11.31        0.13    27.35   0.930
  sub12                     12.16       0.00       0.00       1.27      10.53       0.31      10.85        0.09    20.52   0.892
  sub14                     12.16       0.00       0.00       0.89      10.99       0.20      11.20        0.11    22.08   0.920
  sub15                     12.16       0.00       0.00       3.28       8.45       0.37       8.82        0.15    32.49   0.725
  sub16                     12.16       0.00       0.00       3.51       8.11       0.50       8.61        0.09    20.36   0.708
  sub17                     12.16       0.00       0.00       3.41       8.23       0.48       8.71        0.07    16.72   0.716
  sub22                     12.16       0.00       0.00       4.80       6.89       0.43       7.32        0.46   102.62   0.602
  sub23                     12.16       0.00       0.00       4.05       7.62       0.45       8.07        0.38    85.35   0.663
  sub60                     12.16       0.00       0.00       1.42       8.82       0.04       8.86        2.69   336.84   0.729
  sub61                     12.16       0.00       0.00       2.01       8.94       0.06       9.00        2.78   399.45   0.740
  sub62                     12.16       0.00       0.00       0.92       9.73       0.05       9.78        3.01   415.79   0.804
  sub63                     12.16       0.00       0.00       3.46       7.82       0.06       7.88        2.39   361.21   0.648
  sub64                     12.16       0.00       0.00       1.78       8.47       0.04       8.51        2.59   320.97   0.699
  sub65                     12.16       0.00       0.00       1.54       8.61       0.04       8.65        2.66   326.54   0.711
  sub66                     12.16       0.00       0.00       3.49       7.26       0.04       7.30        2.24   290.53   0.600
  sub67                     12.16       0.00       0.00       0.91      10.24       0.07      10.31        3.18   494.23   0.848
  sub68                     12.16       0.00       0.00       1.64       9.40       0.06       9.46        2.91   432.52   0.778
  sub69                     12.16       0.00       0.00       1.73       9.72       0.09       9.82        2.29   383.95   0.807
  sub70                     12.16      10.02       0.00       6.98      13.09       0.56      13.65        3.12   394.93   0.615
  sub71                     12.16       0.00       0.00       0.93       9.48       0.05       9.53        2.25   296.34   0.783
  sub72                     12.16       0.00       0.00       0.83       7.62       0.02       7.64        1.56   151.13   0.628
  1                         12.16      13.29       0.00       1.37      14.64       3.94      18.57        4.36   399.24   0.730
  2                         12.16       0.00       0.00       3.02       2.89       1.65       4.55        1.82   245.52   0.374
  
  
  ****************************
  Subcatchment Washoff Summary
  ****************************
  
  ------------------------------------------------------------------------------------------
                                 COD            SS            TN            TP         NH4-N
  Subcatchment                    kg            kg            kg            kg            kg
  ------------------------------------------------------------------------------------------
  sub0                         2.176         4.147         0.037         0.003         0.018
  sub1                         9.268        18.138         0.173         0.012         0.083
  sub2                         5.563        10.570         0.119         0.008         0.054
  sub3                        13.747        25.918         0.288         0.019         0.132
  sub4                        21.530        42.606         0.429         0.026         0.205
  sub5                        21.300        41.103         0.378         0.029         0.183
  sub7                         4.748         9.424         0.090         0.006         0.043
  sub8                         7.142        14.500         0.143         0.008         0.069
  sub9                         6.100        12.212         0.118         0.007         0.057
  sub10                       17.532        34.266         0.321         0.023         0.155
  sub11                       17.086        33.770         0.320         0.022         0.154
  sub12                       14.392        27.890         0.260         0.019         0.125
  sub14                       13.021        25.823         0.247         0.016         0.119
  sub15                       16.182        30.744         0.313         0.023         0.146
  sub16                       10.318        19.555         0.197         0.015         0.092
  sub17                        9.471        17.789         0.175         0.014         0.082
  sub22                       48.821        90.813         0.932         0.070         0.434
  sub23                       29.138        56.181         0.627         0.041         0.287
  sub60                      203.703       376.194         4.083         0.248         1.956
  sub61                      251.300       461.579         4.699         0.320         2.261
  sub62                      262.762       491.326         5.157         0.324         2.474
  sub63                      185.047       334.594         3.739         0.261         1.731
  sub64                      253.867       452.095         4.687         0.339         2.235
  sub65                      260.106       465.192         4.834         0.344         2.309
  sub66                      146.558       263.078         3.037         0.197         1.417
  sub67                      388.205       718.566         6.963         0.510         3.363
  sub68                      276.714       513.393         5.318         0.356         2.539
  sub69                      247.676       464.012         4.658         0.325         2.225
  sub70                      413.256       778.342         8.287         0.572         3.877
  sub71                      173.740       327.842         3.597         0.206         1.720
  sub72                      136.329       239.316         2.558         0.174         1.230
  1                          280.724       531.718         5.751         0.398         2.660
  2                           35.485        61.812         1.030         0.062         0.437
  ------------------------------------------------------------------------------------------
  System                    3783.006      6994.507        73.566         4.996        34.873
  
  
  ******************
  Node Depth Summary
  ******************
  
  ---------------------------------------------------------------------------------
                                 Average  Maximum  Maximum  Time of Max    Reported
                                   Depth    Depth      HGL   Occurrence   Max Depth
  Node                 Type       Meters   Meters   Meters  days hr:min      Meters
  ---------------------------------------------------------------------------------
  WS02001211           JUNCTION     0.77     0.82     5.65     0  03:14        0.82
  WS02001212           JUNCTION     0.48     0.54     5.60     0  03:13        0.54
  WS02001213           JUNCTION     0.72     0.80     5.56     0  03:12        0.80
  WS02003069           JUNCTION     0.51     0.65     5.23     0  03:12        0.65
  WS02003072           JUNCTION     0.57     0.70     5.07     0  03:12        0.70
  WS02003073           JUNCTION     0.35     0.44     4.50     0  03:13        0.44
  WS02003060           JUNCTION     0.45     0.57     5.50     0  03:11        0.57
  WS02003066           JUNCTION     0.24     0.34     5.89     0  03:10        0.34
  WS02003059           JUNCTION     0.76     0.86     5.54     0  03:12        0.86
  WS02003067           JUNCTION     0.59     0.76     6.08     0  03:10        0.76
  WS02004401           JUNCTION     0.70     1.03     7.03     0  03:08        1.03
  WS02004402           JUNCTION     0.73     1.04     7.00     0  03:08        1.04
  WS02004403           JUNCTION     0.75     1.04     6.97     0  03:08        1.04
  WS02004404           JUNCTION     0.83     1.10     6.95     0  03:08        1.10
  WS02004406           JUNCTION     0.83     1.06     6.89     0  03:08        1.06
  WS02004409           JUNCTION     0.52     0.80     6.57     0  03:09        0.80
  WS02004410           JUNCTION     0.54     0.80     6.52     0  03:09        0.80
  WS02004411           JUNCTION     0.55     0.80     6.48     0  03:10        0.80
  WS02004412           JUNCTION     0.56     0.79     6.43     0  03:10        0.79
  WS02004413           JUNCTION     0.72     0.94     6.41     0  03:10        0.94
  WS02004405           JUNCTION     0.82     1.08     6.93     0  03:08        1.08
  WS02006109           JUNCTION     0.79     1.15     7.77     0  03:05        1.15
  WS02006110           JUNCTION     0.78     1.04     7.62     0  03:07        1.03
  WS02006111           JUNCTION     0.24     0.46     7.17     0  03:08        0.46
  WS02006112           JUNCTION     0.88     1.27     7.15     0  03:04        1.26
  WS02006113           JUNCTION     0.36     0.53     7.42     0  03:01        0.52
  WS02006115           JUNCTION     0.60     0.96     7.10     0  03:08        0.96
  WS02006116           JUNCTION     0.68     1.03     7.07     0  03:08        1.03
  WS02006230           JUNCTION     0.79     1.30     8.05     0  03:08        1.30
  WS02006231           JUNCTION     0.53     1.00     8.13     0  03:10        1.00
  WS02006232           JUNCTION     0.67     1.16     8.20     0  03:10        1.16
  WS02006234           JUNCTION     0.60     1.13     8.29     0  03:10        1.13
  WS02006235           JUNCTION     0.64     1.19     8.35     0  03:10        1.18
  WS02006238           JUNCTION     0.66     1.22     8.36     0  03:10        1.21
  WS02006240           JUNCTION     0.55     1.15     8.44     0  04:22        1.14
  WS02006242           JUNCTION     0.60     1.23     8.50     0  04:22        1.22
  WS02006243           JUNCTION     0.47     1.13     8.55     0  04:22        1.12
  WS02006245           JUNCTION     0.44     1.12     8.60     0  04:22        1.11
  WS02006247           JUNCTION     0.45     1.14     8.64     0  04:22        1.13
  WS02006248           JUNCTION     0.39     1.08     8.67     0  04:21        1.08
  WS02006249           JUNCTION     0.41     1.09     8.69     0  04:21        1.09
  WS02006239           JUNCTION     0.61     1.18     8.39     0  04:22        1.17
  WS02006251           JUNCTION     0.38     1.27     8.94     0  04:21        1.11
  WS02006252           JUNCTION     0.26     0.81     9.05     0  04:21        0.65
  WS02006253           JUNCTION     0.41     1.37     9.02     0  04:21        1.15
  WS02006256           JUNCTION     1.76     2.35     9.28     0  00:00        2.35
  WS02004138           JUNCTION     0.19     0.20     7.45     0  00:00        0.19
  WS02004139           JUNCTION     0.72     0.76     5.67     0  03:14        0.76
  WS02004407           JUNCTION     0.23     0.35     6.66     0  03:09        0.35
  WS02006228           JUNCTION     0.80     1.24     7.89     0  03:07        1.24
  WS02006229           JUNCTION     0.78     1.27     7.97     0  03:07        1.27
  WS02006280           JUNCTION     0.07     0.20     8.47     0  03:02        0.20
  WS02006284           JUNCTION     0.37     0.56     8.96     0  03:02        0.56
  WS02006287           JUNCTION     0.10     0.30     9.25     0  03:01        0.30
  WSF200               JUNCTION     0.23     0.37     5.60     0  03:10        0.37
  HS02004901           JUNCTION     0.13     0.29    10.12     0  03:01        0.29
  HS02004881           JUNCTION     0.01     0.04     9.07     0  03:01        0.04
  HS02004876           JUNCTION     0.05     0.12     9.15     0  03:01        0.12
  HS02004870           JUNCTION     0.02     0.07     9.35     0  03:01        0.07
  HS02004862           JUNCTION     0.02     0.08     9.46     0  03:01        0.08
  HS02004856           JUNCTION     0.08     0.13     9.55     0  03:01        0.13
  HS02004852           JUNCTION     0.01     0.05     9.56     0  03:01        0.05
  HS02004848           JUNCTION     0.01     0.05     9.65     0  03:01        0.05
  HS02004842           JUNCTION     0.34     0.38     9.65     0  03:01        0.38
  HS02004837           JUNCTION     0.03     0.07     9.65     0  03:01        0.07
  HS02004830           JUNCTION     0.04     0.08     9.55     0  03:01        0.08
  HS02004824           JUNCTION     0.02     0.06     9.47     0  03:01        0.06
  HS02004817           JUNCTION     0.45     0.61     9.45     0  03:01        0.61
  HS02004807           JUNCTION     0.13     0.28     9.45     0  03:01        0.28
  HS02004802           JUNCTION     0.17     0.31     9.44     0  03:01        0.31
  HS02004799           JUNCTION     0.12     0.35     9.56     0  03:01        0.35
  HS02004792           JUNCTION     0.03     0.15     9.67     0  03:01        0.15
  HS02004788           JUNCTION     0.03     0.11    10.01     0  03:01        0.11
  HS02004785           JUNCTION     0.05     0.18    10.09     0  03:01        0.18
  HS02004777           JUNCTION     0.15     0.31    10.11     0  03:01        0.31
  HS02004770           JUNCTION     0.12     0.29    10.12     0  03:01        0.29
  HS02004480           JUNCTION     0.08     0.28     9.52     0  03:01        0.28
  HS02004479           JUNCTION     0.12     0.32     9.52     0  03:01        0.32
  HS02004478           JUNCTION     0.06     0.20     9.42     0  03:01        0.20
  YS02001745           JUNCTION     0.75     0.93     8.45     0  03:00        0.92
  YS02001748           JUNCTION     1.15     1.55     8.63     0  02:27        1.36
  YS02001751           JUNCTION     1.33     1.57     8.45     0  03:00        1.56
  YS02001754           JUNCTION     1.59     1.84     8.45     0  03:00        1.82
  YS02001762           JUNCTION     1.79     2.05     8.45     0  03:00        2.02
  YS02001765           JUNCTION     1.74     1.99     8.44     0  03:50        1.97
  YS02001767           JUNCTION     1.70     1.94     8.43     0  03:50        1.92
  YS02001770           JUNCTION     1.70     1.93     8.42     0  03:00        1.91
  YS02001774           JUNCTION     1.76     1.98     8.40     0  03:00        1.97
  YS02001779           JUNCTION     1.51     1.68     8.37     0  02:36        1.68
  YS02001882           JUNCTION     0.56     1.62     8.34     0  03:00        1.61
  YS02001884           JUNCTION     0.65     1.72     8.34     0  03:00        1.72
  YS02001759           JUNCTION     1.82     2.08     8.45     0  03:00        2.06
  YS02001887           JUNCTION     0.73     1.80     8.33     0  03:00        1.79
  YS02001890           JUNCTION     0.76     1.81     8.32     0  02:44        1.81
  YS02001898           JUNCTION     0.53     1.56     8.29     0  02:59        1.55
  YS02001901           JUNCTION     0.65     1.67     8.28     0  03:00        1.67
  YS02001904           JUNCTION     0.62     1.64     8.27     0  03:00        1.63
  YS02001907           JUNCTION     0.96     1.96     8.25     0  02:44        1.96
  YS02001910           JUNCTION     0.74     1.78     8.29     0  02:46        1.77
  YS02001915           JUNCTION     0.54     1.59     8.31     0  02:45        1.57
  YS02001918           JUNCTION     0.28     1.26     8.33     0  02:45        1.23
  YS02001619           JUNCTION     1.29     1.58     8.51     0  02:27        1.47
  YS02001629           JUNCTION     1.65     1.85     8.40     0  02:27        1.84
  YS02001641           JUNCTION     1.75     1.94     8.38     0  02:35        1.93
  YS02001644           JUNCTION     1.75     1.92     8.35     0  02:35        1.92
  YS02001652           JUNCTION     1.60     2.06     8.66     0  04:03        1.92
  YS02001655           JUNCTION     1.36     2.03     8.88     0  04:03        1.73
  YS02001920           JUNCTION     0.38     1.34     8.35     0  02:45        1.30
  YS02001923           JUNCTION     0.22     1.10     8.36     0  02:45        1.06
  YS02001926           JUNCTION     0.28     0.91     8.36     0  02:45        0.91
  YS02001929           JUNCTION     0.16     0.69     8.38     0  02:46        0.66
  YS02001658           JUNCTION     1.09     1.97     9.11     0  04:03        1.50
  YS02001661           JUNCTION     0.85     2.01     9.42     0  04:03        1.25
  YS02001664           JUNCTION     0.38     0.57     8.50     0  03:51        0.57
  YS02001622           JUNCTION     1.31     1.56     8.46     0  02:27        1.50
  YS02001633           JUNCTION     1.74     1.95     8.40     0  02:35        1.94
  YS02001649           JUNCTION     1.79     2.05     8.44     0  02:37        2.05
  YS02001757           JUNCTION     1.92     2.18     8.44     0  03:00        2.17
  YS02001895           JUNCTION     0.52     1.56     8.31     0  02:44        1.56
  YS02001625           JUNCTION     1.60     1.78     8.38     0  02:27        1.78
  YS02163301           JUNCTION     1.68     1.89     8.40     0  02:36        1.87
  YS02163601           JUNCTION     1.79     1.99     8.39     0  02:35        1.98
  YS02164001           JUNCTION     1.73     1.92     8.38     0  02:35        1.91
  YS02001647           JUNCTION     1.58     1.80     8.41     0  03:46        1.79
  YSB1154              JUNCTION     0.26     0.47     9.52     0  03:01        0.47
  YSB6556              JUNCTION     0.15     0.35     9.52     0  03:01        0.35
  YSB1174              JUNCTION     0.21     0.41     9.52     0  03:01        0.41
  YSB1171              JUNCTION     0.41     0.62     9.52     0  03:01        0.62
  YS02006553           JUNCTION     0.96     1.96     8.25     0  02:50        1.96
  YS02006561           JUNCTION     0.31     1.08     7.74     0  02:44        1.07
  YS02006556           JUNCTION     0.92     1.92     8.23     0  03:00        1.92
  YS02006558           JUNCTION     0.96     1.96     8.23     0  02:58        1.95
  YS02001783           JUNCTION     0.53     1.47     7.61     0  02:44        1.46
  YS02001784           JUNCTION     0.55     1.56     7.63     0  02:34        1.40
  YS02001786           JUNCTION     0.49     1.77     7.80     0  02:34        1.25
  YS02001788           JUNCTION     0.41     1.52     7.49     0  02:34        1.12
  YS02001790           JUNCTION     0.53     1.96     7.60     0  04:43        1.29
  YS02001791           JUNCTION     0.48     1.64     7.11     0  04:42        1.26
  YS02001793           JUNCTION     0.66     1.92     6.75     0  06:23        1.80
  WSC                  OUTFALL      0.35     0.44     1.11     0  03:13        0.44
  JK-storage           STORAGE      2.72     5.80     6.60     0  02:34        5.80
  CC-storage           STORAGE      1.18     1.43     8.43     0  03:04        1.43
  XR-storage           STORAGE      6.60     7.72     5.72     0  02:59        7.72
  
  
  *******************
  Node Inflow Summary
  *******************
  
  -------------------------------------------------------------------------------------------------
                                  Maximum  Maximum                  Lateral       Total        Flow
                                  Lateral    Total  Time of Max      Inflow      Inflow     Balance
                                   Inflow   Inflow   Occurrence      Volume      Volume       Error
  Node                 Type           LPS      LPS  days hr:min    10^6 ltr    10^6 ltr     Percent
  -------------------------------------------------------------------------------------------------
  WS02001211           JUNCTION      7.35   389.98     0  03:23       0.207        10.2       0.398
  WS02001212           JUNCTION      0.00   392.48     0  03:23           0        10.2       0.239
  WS02001213           JUNCTION      0.00   394.72     0  03:22           0        10.1       0.285
  WS02003069           JUNCTION      0.32  1126.40     0  03:11     0.00902        19.1       0.185
  WS02003072           JUNCTION      0.00  1126.35     0  03:12           0          19       0.222
  WS02003073           JUNCTION      1.82  1128.21     0  03:13      0.0514          19       0.257
  WS02003060           JUNCTION     16.53  1126.03     0  03:11       0.466        19.1       0.176
  WS02003066           JUNCTION      0.00   724.22     0  03:10           0        8.57       0.054
  WS02003059           JUNCTION      0.00   397.84     0  03:22           0        10.1       0.397
  WS02003067           JUNCTION      0.00   724.14     0  03:10           0        8.58       0.111
  WS02004401           JUNCTION      0.00   724.45     0  03:08           0        8.82       0.237
  WS02004402           JUNCTION      0.00   724.52     0  03:08           0         8.8       0.225
  WS02004403           JUNCTION      0.00   724.58     0  03:08           0        8.78       0.205
  WS02004404           JUNCTION      0.16   724.78     0  03:08     0.00457        8.76       0.154
  WS02004406           JUNCTION      0.00   724.85     0  03:08           0        8.73       0.376
  WS02004409           JUNCTION      0.00   724.83     0  03:09           0        8.69       0.190
  WS02004410           JUNCTION      0.00   724.57     0  03:09           0        8.67       0.217
  WS02004411           JUNCTION      0.00   724.36     0  03:09           0        8.65       0.223
  WS02004412           JUNCTION      0.00   724.21     0  03:10           0        8.63       0.241
  WS02004413           JUNCTION      0.00   724.15     0  03:10           0        8.61       0.359
  WS02004405           JUNCTION      0.04   724.83     0  03:08     0.00107        8.75       0.234
  WS02006109           JUNCTION      1.23   717.98     0  03:07      0.0347        8.86       0.203
  WS02006110           JUNCTION      0.00   717.98     0  03:07           0        8.84       0.210
  WS02006111           JUNCTION      0.00   725.93     0  03:01           0        8.81       0.043
  WS02006112           JUNCTION     16.72   724.75     0  03:08      0.0747        8.88       0.303
  WS02006113           JUNCTION      0.00   718.01     0  03:07           0        8.82       0.101
  WS02006115           JUNCTION      0.00   724.75     0  03:08           0        8.85       0.223
  WS02006116           JUNCTION      0.00   724.45     0  03:08           0        8.84       0.217
  WS02006230           JUNCTION     10.28   529.37     0  04:23        0.29        6.69       0.198
  WS02006231           JUNCTION      0.00   519.08     0  04:23           0        6.41       0.122
  WS02006232           JUNCTION      0.00   519.18     0  04:23           0        6.43       0.244
  WS02006234           JUNCTION      0.00   519.16     0  04:23           0        6.43       0.104
  WS02006235           JUNCTION      0.00   519.67     0  04:23           0        6.49       0.147
  WS02006238           JUNCTION      0.00   413.23     0  05:50           0        2.87       0.192
  WS02006240           JUNCTION      0.00   413.73     0  05:50           0        2.83       0.297
  WS02006242           JUNCTION      0.00   413.82     0  05:50           0        2.82       0.326
  WS02006243           JUNCTION      0.00   414.46     0  05:50           0        2.81      -0.007
  WS02006245           JUNCTION      0.00   414.87     0  05:50           0        2.82       0.297
  WS02006247           JUNCTION      0.00   415.55     0  05:50           0        2.82       0.059
  WS02006248           JUNCTION      0.00   415.43     0  05:50           0        2.81      -0.073
  WS02006249           JUNCTION      0.00   415.65     0  05:50           0        2.82       0.131
  WS02006239           JUNCTION      0.00   412.58     0  05:50           0        2.85       0.190
  WS02006251           JUNCTION      0.08   408.27     0  05:50     0.00217        2.87      -0.017
  WS02006252           JUNCTION      0.00   399.81     0  05:50           0         2.4       0.005
  WS02006253           JUNCTION      1.99   136.72     0  04:00     0.00928       0.469      -0.065
  WS02006256           JUNCTION      0.00   983.00     0  00:00           0        10.1      -0.010
  WS02004138           JUNCTION      0.00   380.00     0  00:00           0          10       0.063
  WS02004139           JUNCTION      0.32   396.51     0  00:00     0.00905          10       0.452
  WS02004407           JUNCTION      0.00   724.89     0  03:09           0         8.7       0.083
  WS02006228           JUNCTION      0.00   716.74     0  03:07           0        8.84       0.168
  WS02006229           JUNCTION      0.00   717.14     0  03:06           0        8.85       0.144
  WS02006280           JUNCTION      0.00   413.62     0  03:02           0        2.17       0.003
  WS02006284           JUNCTION      0.10   413.57     0  03:02      0.0027        2.17       0.040
  WS02006287           JUNCTION      0.00   413.23     0  03:01           0        2.17       0.034
  WSF200               JUNCTION      0.00   724.25     0  03:10           0        8.57       0.049
  HS02004901           JUNCTION     20.36    20.36     0  03:01      0.0901      0.0904       1.991
  HS02004881           JUNCTION      7.95    84.19     0  03:01      0.0378        0.41       0.103
  HS02004876           JUNCTION     14.96    76.76     0  03:01      0.0728       0.373       0.148
  HS02004870           JUNCTION     14.89    62.16     0  03:01      0.0716         0.3       0.037
  HS02004862           JUNCTION     15.28    47.68     0  03:01      0.0788       0.229       0.077
  HS02004856           JUNCTION     11.18    32.73     0  03:01      0.0539       0.152       0.963
  HS02004852           JUNCTION      0.00    21.94     0  03:01           0      0.0979       0.059
  HS02004848           JUNCTION     34.61    34.61     0  03:01       0.174       0.174       0.029
  HS02004842           JUNCTION      0.00    12.41     0  03:01           0      0.0895      16.999
  HS02004837           JUNCTION     31.84    43.95     0  03:01       0.303        0.38       0.215
  HS02004830           JUNCTION      0.15    43.86     0  03:01     0.00423        0.37       0.334
  HS02004824           JUNCTION     42.39    85.91     0  03:01       0.225       0.594       0.091
  HS02004817           JUNCTION      0.60    86.29     0  03:01      0.0169        0.61       2.809
  HS02004807           JUNCTION     27.35   112.32     0  03:01       0.131       0.725       0.605
  HS02004802           JUNCTION      0.00   111.37     0  03:01           0       0.723       0.549
  HS02004799           JUNCTION     22.08   258.93     0  03:01       0.107        1.24       0.223
  HS02004792           JUNCTION    102.90   238.02     0  03:01        0.47        1.14       0.036
  HS02004788           JUNCTION     34.16   135.95     0  03:01       0.199       0.669       0.059
  HS02004785           JUNCTION      0.15   103.53     0  03:01     0.00423       0.471       0.106
  HS02004777           JUNCTION      0.03   104.16     0  03:01    0.000846       0.472       1.115
  HS02004770           JUNCTION     85.35   105.11     0  03:01       0.385       0.473       0.659
  HS02004480           JUNCTION      0.00   302.45     0  03:01           0        1.46       0.076
  HS02004479           JUNCTION      0.00    44.91     0  03:02           0       0.232       0.317
  HS02004478           JUNCTION      0.00   413.09     0  03:01           0        2.17       0.014
  YS02001745           JUNCTION    336.84   392.56     0  02:26        2.69         2.7       0.425
  YS02001748           JUNCTION      0.04   558.84     0  02:26     0.00127        2.69       0.823
  YS02001751           JUNCTION      0.01   354.99     0  02:17     0.00031        2.65       0.900
  YS02001754           JUNCTION      0.26   342.18     0  03:01     0.00733        2.64       0.953
  YS02001762           JUNCTION      0.00   292.98     0  02:38           0        1.97       1.083
  YS02001765           JUNCTION      0.00   293.33     0  02:38           0        1.97       1.250
  YS02001767           JUNCTION      0.54   293.52     0  02:38      0.0151           2       1.820
  YS02001770           JUNCTION    415.94   608.05     0  03:05        3.01        3.49       0.906
  YS02001774           JUNCTION      0.00   608.37     0  03:04           0        1.95       1.301
  YS02001779           JUNCTION      0.01   608.36     0  03:05    0.000141        1.92       0.811
  YS02001882           JUNCTION      0.00    40.41     0  02:36           0      0.0165      15.881
  YS02001884           JUNCTION      0.00    73.71     0  02:36           0      0.0539      12.771
  YS02001759           JUNCTION    399.49   574.90     0  02:38        2.78        4.24       0.547
  YS02001887           JUNCTION    494.68   494.91     0  03:01        3.19        3.22       0.267
  YS02001890           JUNCTION      0.00   495.20     0  03:01           0        3.18       0.294
  YS02001898           JUNCTION      0.00   495.36     0  03:01           0        3.16       0.097
  YS02001901           JUNCTION      0.00   495.74     0  03:01           0        3.16       0.218
  YS02001904           JUNCTION      0.00   495.87     0  03:01           0        3.16       0.203
  YS02001907           JUNCTION      0.00   942.60     0  03:00           0        7.02       0.352
  YS02001910           JUNCTION      0.00   451.46     0  03:00           0        3.87       0.308
  YS02001915           JUNCTION    296.36   451.41     0  03:00        2.25         3.9       0.154
  YS02001918           JUNCTION      0.00   211.96     0  02:46           0        1.66       0.090
  YS02001619           JUNCTION    290.53   290.53     0  03:01        2.24        2.24       0.550
  YS02001629           JUNCTION      0.00   205.17     0  02:17           0        1.69       1.742
  YS02001641           JUNCTION      0.00   398.71     0  02:34           0        4.25       0.501
  YS02001644           JUNCTION    321.01  1398.03     0  03:01        2.59        10.5       0.262
  YS02001652           JUNCTION      0.00   372.80     0  03:01           0        2.34       1.018
  YS02001655           JUNCTION      0.15   382.67     0  02:18     0.00434        2.37       1.049
  YS02001920           JUNCTION      2.87   211.33     0  02:46      0.0809        1.64       0.168
  YS02001923           JUNCTION      0.04   230.71     0  02:47     0.00106        1.56       0.049
  YS02001926           JUNCTION      0.05   185.58     0  02:46     0.00147        1.56       0.211
  YS02001929           JUNCTION    151.13   151.13     0  03:01        1.56        1.56       0.038
  YS02001658           JUNCTION      0.00   623.85     0  02:23           0        2.41       0.925
  YS02001661           JUNCTION      0.00   621.35     0  02:38           0         2.9      -0.290
  YS02001664           JUNCTION    361.21   361.21     0  03:01        2.38        2.88       0.250
  YS02001622           JUNCTION      0.00   291.02     0  03:01           0        2.22       1.453
  YS02001633           JUNCTION    326.74   397.61     0  02:35        2.66        4.31       0.752
  YS02001649           JUNCTION      0.00   827.37     0  02:35           0        6.01       0.623
  YS02001757           JUNCTION      0.00  1578.95     0  02:35           0        8.68       1.068
  YS02001895           JUNCTION      0.00   494.94     0  03:00           0        3.17       0.163
  YS02001625           JUNCTION      0.00   290.56     0  03:01           0        2.19       1.812
  YS02163301           JUNCTION      0.00   204.49     0  02:27           0        1.67       1.472
  YS02163601           JUNCTION      0.11   397.50     0  02:34      0.0031        4.27       0.708
  YS02164001           JUNCTION      0.00   398.54     0  02:34           0        4.25       0.477
  YS02001647           JUNCTION      0.00   709.83     0  03:06           0        5.25       0.543
  YSB1154              JUNCTION     26.18    26.18     0  03:01       0.129        0.13       1.131
  YSB6556              JUNCTION      0.00    25.83     0  03:01           0        0.13       0.969
  YSB1174              JUNCTION     20.52    20.52     0  03:01      0.0948      0.0952       1.369
  YSB1171              JUNCTION      0.00    45.30     0  03:01           0       0.231       2.822
  YS02006553           JUNCTION      0.00   704.29     0  03:31           0        6.57       0.239
  YS02006561           JUNCTION      0.00   982.29     0  03:00           0        9.44       0.008
  YS02006556           JUNCTION      0.00   704.35     0  03:31           0        6.57       0.176
  YS02006558           JUNCTION    433.40   983.32     0  03:00        2.93        9.47       0.054
  YS02001783           JUNCTION      0.00   982.44     0  03:00           0        9.44       0.024
  YS02001784           JUNCTION      1.06   983.53     0  03:00      0.0299        9.47       0.039
  YS02001786           JUNCTION      0.06   983.36     0  02:59     0.00159        9.47       0.037
  YS02001788           JUNCTION      0.07   983.50     0  03:00       0.002        9.47       0.022
  YS02001790           JUNCTION      0.15   983.74     0  03:00     0.00437        9.47       0.016
  YS02001791           JUNCTION      0.00   983.72     0  03:00           0        9.47       0.012
  YS02001793           JUNCTION      0.00   984.02     0  03:00           0        9.49      -0.016
  WSC                  OUTFALL       0.00  1128.20     0  03:13           0          19       0.000
  JK-storage           STORAGE       0.00  1135.95     0  02:04           0        9.65     -12.514
  CC-storage           STORAGE       0.00  1579.36     0  02:35           0        6.38       1.033
  XR-storage           STORAGE     844.76   844.76     0  03:01        11.8        12.4      -0.002
  
  
  **********************
  Node Surcharge Summary
  **********************
  
  Surcharging occurs when water rises above the top of the highest conduit.
  ---------------------------------------------------------------------
                                               Max. Height   Min. Depth
                                   Hours       Above Crown    Below Rim
  Node                 Type      Surcharged         Meters       Meters
  ---------------------------------------------------------------------
  WS02004401           JUNCTION        0.22          0.034        1.626
  WS02004402           JUNCTION        0.26          0.044        1.696
  WS02004403           JUNCTION        0.26          0.041        1.989
  WS02004404           JUNCTION        0.46          0.099        2.681
  WS02004406           JUNCTION        0.39          0.063        2.387
  WS02004405           JUNCTION        0.43          0.084        2.716
  WS02006109           JUNCTION        3.18          0.331        1.489
  WS02006110           JUNCTION        1.07          0.125        1.725
  WS02006112           JUNCTION        1.57          0.266        1.414
  WS02006230           JUNCTION        0.57          0.224        1.346
  WS02006231           JUNCTION        0.77          0.294        1.236
  WS02006232           JUNCTION        2.88          0.464        1.016
  WS02006234           JUNCTION        1.65          0.415        0.825
  WS02006235           JUNCTION        2.24          0.480        0.810
  WS02006238           JUNCTION        2.38          0.496        0.934
  WS02006240           JUNCTION        1.19          0.440        0.950
  WS02006242           JUNCTION        1.43          0.497        0.323
  WS02006243           JUNCTION        0.71          0.417        0.353
  WS02006245           JUNCTION        0.62          0.409        0.441
  WS02006247           JUNCTION        0.63          0.426        0.334
  WS02006248           JUNCTION        0.51          0.360        0.020
  WS02006249           JUNCTION        0.54          0.390        0.000
  WS02006239           JUNCTION        1.59          0.444        0.846
  WS02006251           JUNCTION        0.07          0.239        0.941
  WS02006252           JUNCTION        0.71          0.405        0.695
  WS02006253           JUNCTION        0.08          0.332        2.148
  WS02006256           JUNCTION        6.71          2.050        0.000
  WS02006228           JUNCTION        3.14          0.414        1.786
  YS02001748           JUNCTION        5.31          0.471        0.719
  YS02001751           JUNCTION        5.48          0.567        0.633
  YS02001754           JUNCTION        5.69          0.788        0.362
  YS02001762           JUNCTION        5.87          1.048        0.102
  YS02001765           JUNCTION        5.84          0.992        0.108
  YS02001767           JUNCTION        5.81          0.943        0.087
  YS02001770           JUNCTION        5.80          0.896        0.024
  YS02001774           JUNCTION        5.86          0.982        0.068
  YS02001779           JUNCTION        5.68          0.680        0.000
  YS02001882           JUNCTION        0.91          0.621        0.209
  YS02001884           JUNCTION        0.93          0.661        0.209
  YS02001759           JUNCTION        5.89          1.083        0.127
  YS02001887           JUNCTION        0.99          0.746        0.204
  YS02001890           JUNCTION        1.02          0.760        0.000
  YS02001898           JUNCTION        0.87          0.526        0.214
  YS02001901           JUNCTION        0.96          0.674        0.196
  YS02001904           JUNCTION        0.94          0.636        0.214
  YS02001907           JUNCTION        1.77          0.950        0.000
  YS02001910           JUNCTION        1.06          0.778        0.322
  YS02001915           JUNCTION        0.89          0.587        0.413
  YS02001918           JUNCTION        0.71          0.261        0.549
  YS02001619           JUNCTION        5.47          0.578        0.032
  YS02001629           JUNCTION        5.48          0.470        0.000
  YS02001641           JUNCTION        5.85          0.939        0.161
  YS02001644           JUNCTION        5.85          0.920        0.000
  YS02001652           JUNCTION        5.73          1.034        0.096
  YS02001655           JUNCTION        5.50          1.033        0.167
  YS02001920           JUNCTION        0.74          0.340        0.800
  YS02001658           JUNCTION        5.34          0.965        0.335
  YS02001661           JUNCTION        0.19          0.944        0.446
  YS02001622           JUNCTION        5.51          0.556        0.064
  YS02001633           JUNCTION        5.83          0.927        0.133
  YS02001649           JUNCTION        5.87          1.050        0.000
  YS02001757           JUNCTION        5.98          1.182        0.028
  YS02001895           JUNCTION        0.88          0.561        0.189
  YS02001625           JUNCTION        5.76          0.780        0.000
  YS02163301           JUNCTION        5.81          0.885        0.145
  YS02163601           JUNCTION        5.87          0.992        0.088
  YS02164001           JUNCTION        5.84          0.920        0.180
  YS02001647           JUNCTION        5.75          0.799        0.101
  YS02006553           JUNCTION        1.86          0.964        0.226
  YS02006561           JUNCTION        0.77          0.281        0.869
  YS02006556           JUNCTION        1.30          0.880        0.470
  YS02006558           JUNCTION        1.26          0.861        0.539
  YS02001783           JUNCTION        1.04          0.668        0.932
  YS02001784           JUNCTION        1.02          0.760        0.730
  YS02001786           JUNCTION        0.97          0.967        0.463
  YS02001788           JUNCTION        0.92          0.716        0.764
  YS02001790           JUNCTION        1.78          1.157        0.000
  YS02001791           JUNCTION        1.89          0.840        1.080
  YS02001793           JUNCTION        2.16          0.922        1.678
  
  
  *********************
  Node Flooding Summary
  *********************
  
  Flooding refers to all water that overflows a node, whether it ponds or not.
  --------------------------------------------------------------------------
                                                             Total   Maximum
                                 Maximum   Time of Max       Flood    Ponded
                        Hours       Rate    Occurrence      Volume     Depth
  Node                 Flooded       LPS   days hr:min    10^6 ltr    Meters
  --------------------------------------------------------------------------
  WS02006249              0.05     75.72      0  04:21       0.004     0.000
  WS02006256              3.48    978.40      0  00:00       6.464     0.000
  YS02001779              2.95    608.34      0  03:05       1.900     0.000
  YS02001890              0.01      0.71      0  02:44       0.000     0.000
  YS02001907              0.58    393.68      0  03:01       0.442     0.000
  YS02001629              0.01      9.87      0  02:27       0.000     0.000
  YS02001644              5.11   1397.46      0  03:01       8.988     0.000
  YS02001649              0.03     28.25      0  03:42       0.001     0.000
  YS02001625              1.19    235.83      0  03:01       0.464     0.000
  YS02001790              0.01    138.78      0  04:43       0.000     0.000
  JK-storage              0.83    815.40      0  02:40       0.871     0.000
  XR-storage              2.98    464.71      0  03:01       1.761     0.000
  
  
  **********************
  Storage Volume Summary
  **********************
  
  --------------------------------------------------------------------------------------------------
                         Average     Avg  Evap Exfil       Maximum     Max    Time of Max    Maximum
                          Volume    Pcnt  Pcnt  Pcnt        Volume    Pcnt     Occurrence    Outflow
  Storage Unit           1000 m3    Full  Loss  Loss       1000 m3    Full    days hr:min        LPS
  --------------------------------------------------------------------------------------------------
  JK-storage               0.137      47     0     0         0.291     100       0  02:34     983.00
  CC-storage               3.279      21     0     0         3.980      25       0  03:04     399.81
  XR-storage               0.792      86     0     0         0.926     100       0  02:59     380.00
  
  
  ***********************
  Outfall Loading Summary
  ***********************
  
  ---------------------------------------------------------------------------------------------------------------------------------
                         Flow       Avg       Max       Total         Total         Total         Total         Total         Total
                         Freq      Flow      Flow      Volume           COD            SS            TN            TP         NH4-N
  Outfall Node           Pcnt       LPS       LPS    10^6 ltr            kg            kg            kg            kg            kg
  ---------------------------------------------------------------------------------------------------------------------------------
  WSC                   99.98    761.31   1128.20      18.995      2272.396      3873.691       151.137        17.900        91.769
  ---------------------------------------------------------------------------------------------------------------------------------
  System                99.98    761.31   1128.20      18.995      2272.396      3873.691       151.137        17.900        91.769
  
  
  ********************
  Link Flow Summary
  ********************
  
  -----------------------------------------------------------------------------
                                 Maximum  Time of Max   Maximum    Max/    Max/
                                  |Flow|   Occurrence   |Veloc|    Full    Full
  Link                 Type          LPS  days hr:min     m/sec    Flow   Depth
  -----------------------------------------------------------------------------
  WS02003066WSF200     CONDUIT    724.25     0  03:10      2.88    0.12    0.27
  WS02006287WS02006284 CONDUIT    413.48     0  03:02      2.04    0.19    0.30
  WS02006284WS02006280 CONDUIT    413.62     0  03:02      2.28    0.17    0.28
  WS02006280WS02006229 CONDUIT    413.67     0  03:02      3.68    0.09    0.20
  WS02006229WS02006228 CONDUIT    716.74     0  03:07      1.43    2.37    1.00
  WS02006256WS02006235 CONDUIT    288.60     0  00:00      4.23    3.05    1.00
  WS02006253WS02006251 CONDUIT    131.31     0  04:00      0.60    0.39    1.00
  WS02006252WS02006251 CONDUIT    399.81     0  06:20      3.18    1.47    1.00
  WS02006251WS02006249 CONDUIT    415.65     0  05:50      1.13    1.20    1.00
  WS02006249WS02006248 CONDUIT    415.43     0  05:50      1.19    2.28    1.00
  WS02006248WS02006247 CONDUIT    415.55     0  05:50      1.16    0.90    1.00
  WS02006247WS02006245 CONDUIT    414.87     0  05:50      1.14    3.29    1.00
  WS02006245WS02006243 CONDUIT    414.46     0  05:50      1.18    1.23    1.00
  WS02006243WS02006242 CONDUIT    413.82     0  05:50      1.08    0.88    1.00
  WS02006242WS02006240 CONDUIT    413.73     0  05:50      1.08    1.64    1.00
  WS02006240WS02006239 CONDUIT    412.58     0  05:50      1.07    1.30    1.00
  WS02006239WS02006238 CONDUIT    413.23     0  05:50      1.07    1.32    1.00
  WS02006238WS02006235 CONDUIT    415.09     0  05:50      1.46    0.93    1.00
  WS02006235WS02006234 CONDUIT    519.16     0  04:23      1.35    5.48    1.00
  WS02006234WS02006232 CONDUIT    519.18     0  04:23      1.39    1.05    1.00
  WS02006232WS02006231 CONDUIT    519.08     0  04:23      1.35    1.09    1.00
  WS02006231WS02006230 CONDUIT    519.09     0  04:23      1.35    7.87    1.00
  WS02006230WS02006229 CONDUIT    529.04     0  04:23      1.37   11.77    1.00
  WS02006228WS02006109 CONDUIT    716.75     0  03:07      1.43    3.13    1.00
  WS02006116WS02004401 CONDUIT    724.45     0  03:08      0.92    1.00    1.00
  WS02006115WS02006116 CONDUIT    724.45     0  03:08      0.93    0.93    0.97
  WS02006113WS02006111 CONDUIT    725.93     0  03:01      2.59    0.87    0.61
  WS02006112WS02006115 CONDUIT    724.75     0  03:08      0.93    0.43    0.98
  WS02006111WS02006112 CONDUIT    717.14     0  03:08      1.71    0.34    0.78
  WS02006110WS02006113 CONDUIT    718.01     0  03:07      1.61    0.65    0.83
  WS02006109WS02006110 CONDUIT    717.98     0  03:07      1.43    1.38    1.00
  WS02004411WS02004412 CONDUIT    724.21     0  03:10      1.08    1.03    0.80
  WS02004401WS02004402 CONDUIT    724.52     0  03:08      0.92    0.87    1.00
  WS02004413WS02003067 CONDUIT    724.14     0  03:10      1.31    0.31    0.66
  WS02004412WS02004413 CONDUIT    724.15     0  03:10      1.00    0.48    0.87
  WS02004410WS02004411 CONDUIT    724.36     0  03:09      1.08    0.99    0.80
  WS02004409WS02004410 CONDUIT    724.57     0  03:09      1.08    0.94    0.80
  WS02004407WS02004409 CONDUIT    724.83     0  03:09      1.57    0.26    0.57
  WS02004406WS02004407 CONDUIT    724.89     0  03:09      1.29    0.32    0.67
  WS02004405WS02004406 CONDUIT    724.85     0  03:08      0.92    1.43    1.00
  WS02004404WS02004405 CONDUIT    724.79     0  03:08      0.92    7.10    1.00
  WS02004403WS02004404 CONDUIT    724.62     0  03:08      0.92    0.52    1.00
  WS02004402WS02004403 CONDUIT    724.58     0  03:08      0.92    1.04    1.00
  WS02004139WS02001211 CONDUIT    382.63     0  03:23      0.90    0.48    0.61
  WS02004138WS02004139 CONDUIT    396.19     0  00:00      3.65    0.08    0.45
  WS02003067WS02003066 CONDUIT    724.22     0  03:10      1.43    0.23    0.46
  WS02001213WS02003059 CONDUIT    397.84     0  03:22      0.88    0.66    0.82
  WS02001212WS02001213 CONDUIT    394.72     0  03:22      1.32    0.61    0.51
  WS02001211WS02001212 CONDUIT    392.48     0  03:23      0.78    0.30    0.68
  WS02003072WS02003073 CONDUIT   1126.39     0  03:13      1.84    2.43    0.53
  WS02003069WS02003072 CONDUIT   1126.35     0  03:12      1.72    0.54    0.56
  WS02003060WS02003069 CONDUIT   1126.08     0  03:11      1.95    0.44    0.51
  WS02003059WS02003060 CONDUIT    402.02     0  03:21      0.95    0.26    0.71
  HS02004901HS02004770 CONDUIT     20.53     0  03:01      0.07    0.08    0.42
  HS02004876HS02004881 CONDUIT     76.55     0  03:01      0.95    0.81    0.12
  HS02004870HS02004876 CONDUIT     61.90     0  03:01      0.65    0.04    0.14
  HS02004842HS02004848 CONDUIT     12.41     0  03:01      0.06    0.01    0.31
  HS02004837HS02004842 CONDUIT     12.98     0  03:02      0.42    0.01    0.32
  HS02004830HS02004837 CONDUIT     43.71     0  03:01      0.57    0.04    0.11
  HS02004824HS02004830 CONDUIT     43.67     0  03:01      0.59    0.06    0.11
  HS02004817HS02004824 CONDUIT     85.69     0  03:01      0.26    0.04    0.48
  HS02004770HS02004777 CONDUIT    104.13     0  03:01      0.35    0.19    0.43
  HS02004799HS02004480 CONDUIT    258.31     0  03:01      0.83    0.33    0.44
  HS02004792HS02004799 CONDUIT    237.05     0  03:01      0.95    0.15    0.36
  HS02004788HS02004792 CONDUIT    135.43     0  03:01      1.06    0.09    0.18
  HS02004785HS02004788 CONDUIT    103.22     0  03:02      0.71    0.78    0.21
  HS02004777HS02004785 CONDUIT    103.38     0  03:01      0.42    0.13    0.35
  HS02004480HS02004478 CONDUIT    302.30     0  03:01      1.26    1.27    0.34
  HS02004479HS02004480 CONDUIT     46.30     0  03:02      0.32    0.04    0.43
  HS02004862HS02004870 CONDUIT     47.43     0  03:01      0.66    0.05    0.10
  HS02004848HS02004852 CONDUIT     21.94     0  03:01      0.45    0.02    0.07
  HS02004856HS02004862 CONDUIT     32.47     0  03:01      0.48    0.03    0.10
  HS02004852HS02004856 CONDUIT     21.85     0  03:02      0.25    0.02    0.13
  HS02004802HS02004478 CONDUIT    111.52     0  03:02      0.45    0.10    0.36
  HS02004478WS02006287 CONDUIT    413.23     0  03:01      1.75    0.12    0.26
  HS02004817HS02004807 CONDUIT     86.14     0  03:01      0.19    0.05    0.63
  HS02004807HS02004802 CONDUIT    111.37     0  03:01      0.38    0.21    0.42
  YS02001759YS02001757 CONDUIT    575.26     0  02:38      0.73    0.41    1.00
  YS02001762YS02001759 CONDUIT    292.32     0  02:38      0.37    0.34    1.00
  YS02001765YS02001762 CONDUIT    292.98     0  02:38      0.37    0.27    1.00
  YS02001770YS02001767 CONDUIT    292.99     0  02:38      0.37    1.16    1.00
  YS02001774YS02001770 CONDUIT    608.37     0  03:04      0.77    0.39    1.00
  YS02001779YS02001774 CONDUIT    608.35     0  03:05      0.77    0.31    1.00
  YS02001649YS02001757 CONDUIT    826.12     0  02:35      1.05    0.50    1.00
  YS02001767YS02001765 CONDUIT    293.33     0  02:38      0.37    0.37    1.00
  YS02006561YS02001783 CONDUIT    982.44     0  03:00      2.15    0.51    1.00
  YS02001783YS02001784 CONDUIT    982.47     0  03:00      1.95    1.35    1.00
  YS02001784YS02001785 CONDUIT    983.30     0  02:59      1.96    2.29    1.00
  YS02001788YS02001790 CONDUIT    983.59     0  03:00      2.44    0.72    1.00
  YS02001790YS02001791 CONDUIT    983.72     0  03:00      2.90    1.07    1.00
  YS02001791YS02001793 CONDUIT    984.02     0  03:00      5.76    0.42    1.00
  YS02001910YS02001907 CONDUIT    451.68     0  03:00      0.58    0.25    1.00
  YS02001786YS02001788 CONDUIT    983.43     0  03:00      2.31    1.89    1.00
  YS02001915YS02001910 CONDUIT    451.46     0  03:00      0.59    0.22    1.00
  YS02001918YS02001915 CONDUIT    246.16     0  03:31      0.44    0.14    1.00
  YS02001923YS02001920 CONDUIT    208.46     0  02:46      0.72    0.09    1.00
  YS02001926YS02001923 CONDUIT    230.67     0  02:47      0.83    0.33    0.89
  YS02001929YS02001926 CONDUIT    185.53     0  02:46      0.89    0.09    0.79
  YS02001920YS02001918 CONDUIT    211.96     0  02:46      0.70    0.21    1.00
  YS02001629YS02163301 CONDUIT    204.49     0  02:27      0.26    0.25    1.00
  YS02001619YS02001622 CONDUIT    291.02     0  03:01      0.61    0.43    1.00
  YS02001622YS02001625 CONDUIT    290.56     0  03:01      0.37    0.16    1.00
  YS02001625YS02001629 CONDUIT    205.17     0  02:17      0.26    0.10    1.00
  YS02163301YS02001633 CONDUIT    206.45     0  02:27      0.26    0.19    1.00
  YS02163601YS02164001 CONDUIT    398.54     0  02:34      0.51    0.35    1.00
  YS02164001YS02001641 CONDUIT    398.71     0  02:34      0.51    0.54    1.00
  YS02001641YS02001644 CONDUIT    399.07     0  02:34      0.51    1.29    1.00
  YS02001647YS02001649 CONDUIT    709.83     0  03:06      0.90    0.37    1.00
  YS02006553YS02006556 CONDUIT    704.35     0  03:31      0.90    0.60    1.00
  YS02006556YS02006558 CONDUIT    704.55     0  03:31      0.90    0.56    1.00
  YSB6556YSB1171       CONDUIT     25.76     0  03:03      0.09    0.03    0.70
  YS02001907YS02006553 CONDUIT    704.29     0  03:31      0.78    0.83    1.00
  YS02006558YS02006561 CONDUIT    982.29     0  03:00      3.47    2.17    1.00
  YS02001633YS02163601 CONDUIT    397.39     0  02:34      0.51    0.42    1.00
  YS02001644YS02001647 CONDUIT    709.96     0  03:06      0.90    0.42    1.00
  YS02001745YS02001748 CONDUIT    558.79     0  02:26      1.47    0.22    0.96
  YS02001748YS02001751 CONDUIT    354.98     0  02:17      1.06    0.18    1.00
  YS02001751YS02001754 CONDUIT    341.92     0  03:01      0.92    0.16    1.00
  YS02001754YS02001757 CONDUIT    341.03     0  03:01      0.43    0.14    1.00
  YS02001882YS02001884 CONDUIT     40.41     0  02:36      0.13    0.05    1.00
  YS02001884YS02001887 CONDUIT     73.71     0  02:36      0.09    0.10    1.00
  YS02001890YS02001895 CONDUIT    494.94     0  03:00      0.63    0.23    1.00
  YS02001895YS02001898 CONDUIT    495.36     0  03:01      0.63    0.86    1.00
  YS02001898YS02001901 CONDUIT    495.74     0  03:01      0.63    0.32    1.00
  YS02001901YS02001904 CONDUIT    495.87     0  03:01      0.63    0.77    1.00
  YS02001904YS02001907 CONDUIT    495.75     0  03:01      0.63    0.17    1.00
  YS02001887YS02001890 CONDUIT    495.20     0  03:01      0.63    0.85    1.00
  YS02001652YS02001649 CONDUIT    373.63     0  03:01      0.63    0.19    1.00
  YS02001655YS02001652 CONDUIT    372.80     0  03:01      0.98    0.18    1.00
  YS02001658YS02001655 CONDUIT    382.51     0  02:18      1.22    0.16    1.00
  YS02001661YS02001658 CONDUIT    623.85     0  02:23      1.55    0.24    1.00
  YS02001664YS02001661 CONDUIT    621.35     0  02:38      1.43    0.19    0.77
  YSB1154YSB6556       CONDUIT     25.83     0  03:01      0.17    0.05    0.59
  YSB1174YSB1171       CONDUIT     20.15     0  03:01      0.07    0.03    0.70
  YSB1171HS02004479    CONDUIT     44.91     0  03:02      0.54    0.03    0.55
  HS02004881HS02006253 CONDUIT     84.16     0  03:01      2.17    0.02    0.50
  YS02001793JiankangQianchi CONDUIT   1135.95     0  02:04     17.53    0.09    1.00
  YS02001757CaochengTiaoxuchi CONDUIT   1579.36     0  02:35      2.02    0.69    1.00
  WSF200WS02003060     CONDUIT    724.33     0  03:11      1.76    0.16    0.39
  1                    CONDUIT   1128.20     0  03:13      3.44    0.39    0.44
  CC-Pump-1            PUMP       200.00     0  03:30              1.00
  CC-Pump-2            PUMP       199.90     0  04:20              1.00
  JK-Pump-1            PUMP       300.00     0  00:00              1.00
  JK-Pump-2            PUMP       683.00     0  00:00              1.00
  XR-Pump-1            PUMP        95.00     0  00:00              1.00
  XR-Pump-2            PUMP        95.00     0  00:00              1.00
  XR-Pump-3            PUMP        95.00     0  00:00              1.00
  XR-Pump-4            PUMP        95.00     0  00:00              1.00
  
  
  ***************************
  Flow Classification Summary
  ***************************
  
  -------------------------------------------------------------------------------------
                      Adjusted    ---------- Fraction of Time in Flow Class ---------- 
                       /Actual         Up    Down  Sub   Sup   Up    Down  Norm  Inlet 
  Conduit               Length    Dry  Dry   Dry   Crit  Crit  Crit  Crit  Ltd   Ctrl  
  -------------------------------------------------------------------------------------
  WS02003066WSF200        1.00   0.01  0.06  0.00  0.00  0.93  0.00  0.00  0.56  0.00
  WS02006287WS02006284    1.00   0.03  0.01  0.00  0.61  0.35  0.00  0.00  0.62  0.00
  WS02006284WS02006280    1.00   0.04  0.00  0.00  0.00  0.00  0.00  0.96  0.00  0.00
  WS02006280WS02006229    1.00   0.04  0.00  0.00  0.00  0.00  0.00  0.96  0.00  0.00
  WS02006229WS02006228    1.00   0.00  0.00  0.00  1.00  0.00  0.00  0.00  0.00  0.00
  WS02006256WS02006235    1.00   0.00  0.00  0.00  1.00  0.00  0.00  0.00  0.00  0.00
  WS02006253WS02006251    1.00   0.01  0.02  0.00  0.97  0.00  0.01  0.00  0.00  0.00
  WS02006252WS02006251    1.00   0.20  0.00  0.00  0.02  0.01  0.78  0.00  0.00  0.00
  WS02006251WS02006249    1.00   0.00  0.00  0.00  1.00  0.00  0.00  0.00  0.26  0.00
  WS02006249WS02006248    1.00   0.00  0.01  0.00  0.89  0.00  0.10  0.00  0.00  0.00
  WS02006248WS02006247    1.00   0.01  0.00  0.00  0.98  0.00  0.00  0.01  0.14  0.00
  WS02006247WS02006245    1.00   0.01  0.00  0.00  0.96  0.00  0.00  0.03  0.00  0.00
  WS02006245WS02006243    1.00   0.00  0.00  0.00  0.94  0.00  0.00  0.06  0.02  0.00
  WS02006243WS02006242    1.00   0.00  0.00  0.00  1.00  0.00  0.00  0.00  0.25  0.00
  WS02006242WS02006240    1.00   0.00  0.00  0.00  1.00  0.00  0.00  0.00  0.00  0.00
  WS02006240WS02006239    1.00   0.00  0.00  0.00  0.95  0.00  0.00  0.05  0.02  0.00
  WS02006239WS02006238    1.00   0.00  0.00  0.00  1.00  0.00  0.00  0.00  0.14  0.00
  WS02006238WS02006235    1.00   0.00  0.00  0.00  1.00  0.00  0.00  0.00  0.00  0.00
  WS02006235WS02006234    1.00   0.00  0.00  0.00  0.96  0.00  0.04  0.00  0.00  0.00
  WS02006234WS02006232    1.00   0.00  0.00  0.00  1.00  0.00  0.00  0.00  0.10  0.00
  WS02006232WS02006231    1.00   0.00  0.00  0.00  1.00  0.00  0.00  0.00  0.00  0.00
  WS02006231WS02006230    1.00   0.00  0.00  0.00  0.70  0.00  0.30  0.00  0.00  0.00
  WS02006230WS02006229    1.00   0.00  0.00  0.00  1.00  0.00  0.00  0.00  0.01  0.00
  WS02006228WS02006109    1.00   0.00  0.00  0.00  1.00  0.00  0.00  0.00  0.00  0.00
  WS02006116WS02004401    1.00   0.01  0.00  0.00  0.99  0.00  0.00  0.00  0.01  0.00
  WS02006115WS02006116    1.00   0.01  0.00  0.00  0.97  0.00  0.00  0.02  0.01  0.00
  WS02006113WS02006111    1.00   0.01  0.00  0.00  0.00  0.99  0.00  0.00  0.18  0.00
  WS02006112WS02006115    1.00   0.01  0.00  0.00  0.99  0.00  0.00  0.00  0.00  0.00
  WS02006111WS02006112    1.00   0.01  0.00  0.00  0.99  0.00  0.00  0.00  0.92  0.00
  WS02006110WS02006113    1.00   0.00  0.00  0.00  0.99  0.00  0.00  0.00  0.00  0.00
  WS02006109WS02006110    1.00   0.00  0.00  0.00  1.00  0.00  0.00  0.00  0.00  0.00
  WS02004411WS02004412    1.00   0.05  0.00  0.00  0.95  0.00  0.00  0.00  0.00  0.00
  WS02004401WS02004402    1.00   0.01  0.00  0.00  0.99  0.00  0.00  0.00  0.01  0.00
  WS02004413WS02003067    1.00   0.05  0.01  0.00  0.00  0.00  0.94  0.00  0.00  0.00
  WS02004412WS02004413    1.00   0.05  0.00  0.00  0.95  0.00  0.00  0.00  0.00  0.00
  WS02004410WS02004411    1.00   0.05  0.00  0.00  0.95  0.00  0.00  0.00  0.00  0.00
  WS02004409WS02004410    1.00   0.05  0.00  0.00  0.95  0.00  0.00  0.00  0.00  0.00
  WS02004407WS02004409    1.00   0.05  0.00  0.00  0.95  0.01  0.00  0.00  0.81  0.00
  WS02004406WS02004407    1.00   0.00  0.05  0.00  0.95  0.00  0.00  0.00  0.00  0.00
  WS02004405WS02004406    1.00   0.00  0.00  0.00  1.00  0.00  0.00  0.00  0.02  0.00
  WS02004404WS02004405    1.00   0.00  0.00  0.00  1.00  0.00  0.00  0.00  0.00  0.00
  WS02004403WS02004404    1.00   0.00  0.01  0.00  0.99  0.00  0.00  0.00  0.02  0.00
  WS02004402WS02004403    1.00   0.01  0.00  0.00  0.99  0.00  0.00  0.00  0.00  0.00
  WS02004139WS02001211    1.00   0.00  0.00  0.00  1.00  0.00  0.00  0.00  0.00  0.00
  WS02004138WS02004139    1.00   0.00  0.00  0.00  1.00  0.00  0.00  0.00  1.00  0.00
  WS02003067WS02003066    1.00   0.06  0.00  0.00  0.93  0.00  0.00  0.00  0.00  0.00
  WS02001213WS02003059    1.00   0.00  0.00  0.00  1.00  0.00  0.00  0.00  0.00  0.00
  WS02001212WS02001213    1.00   0.00  0.00  0.00  0.92  0.00  0.08  0.00  0.00  0.00
  WS02001211WS02001212    1.00   0.00  0.00  0.00  1.00  0.00  0.00  0.00  0.00  0.00
  WS02003072WS02003073    1.00   0.00  0.00  0.00  0.00  0.00  0.00  1.00  0.00  0.00
  WS02003069WS02003072    1.00   0.00  0.00  0.00  1.00  0.00  0.00  0.00  0.11  0.00
  WS02003060WS02003069    1.00   0.00  0.00  0.00  0.99  0.01  0.00  0.00  0.09  0.00
  WS02003059WS02003060    1.00   0.00  0.00  0.00  1.00  0.00  0.00  0.00  0.00  0.00
  HS02004901HS02004770    1.00   0.03  0.00  0.00  0.97  0.00  0.00  0.00  0.00  0.00
  HS02004876HS02004881    1.00   0.01  0.00  0.00  0.93  0.07  0.00  0.00  0.00  0.00
  HS02004870HS02004876    1.00   0.00  0.00  0.00  1.00  0.00  0.00  0.00  0.95  0.00
  HS02004842HS02004848    1.00   0.00  0.03  0.00  0.97  0.00  0.00  0.00  0.55  0.00
  HS02004837HS02004842    1.00   0.00  0.00  0.00  1.00  0.00  0.00  0.00  0.11  0.00
  HS02004830HS02004837    1.00   0.00  0.00  0.00  1.00  0.00  0.00  0.00  0.99  0.00
  HS02004824HS02004830    1.00   0.00  0.00  0.00  1.00  0.00  0.00  0.00  0.00  0.00
  HS02004817HS02004824    1.00   0.00  0.00  0.00  1.00  0.00  0.00  0.00  1.00  0.00
  HS02004770HS02004777    1.00   0.00  0.03  0.00  0.97  0.00  0.00  0.00  0.02  0.00
  HS02004799HS02004480    1.00   0.00  0.01  0.00  0.96  0.00  0.03  0.00  0.00  0.00
  HS02004792HS02004799    1.00   0.00  0.00  0.00  1.00  0.00  0.00  0.00  0.98  0.00
  HS02004788HS02004792    1.00   0.00  0.00  0.00  1.00  0.00  0.00  0.00  0.98  0.00
  HS02004785HS02004788    1.00   0.00  0.00  0.00  1.00  0.00  0.00  0.00  0.00  0.00
  HS02004777HS02004785    1.00   0.00  0.00  0.00  1.00  0.00  0.00  0.00  0.12  0.00
  HS02004480HS02004478    1.00   0.03  0.00  0.00  0.69  0.00  0.00  0.27  0.00  0.00
  HS02004479HS02004480    1.00   0.01  0.00  0.00  0.99  0.00  0.00  0.00  0.11  0.00
  HS02004862HS02004870    1.00   0.00  0.00  0.00  1.00  0.00  0.00  0.00  0.03  0.00
  HS02004848HS02004852    1.00   0.03  0.00  0.00  0.97  0.00  0.00  0.00  0.62  0.00
  HS02004856HS02004862    1.00   0.00  0.04  0.00  0.96  0.00  0.00  0.00  0.83  0.00
  HS02004852HS02004856    1.00   0.03  0.00  0.00  0.96  0.00  0.00  0.00  0.85  0.00
  HS02004802HS02004478    1.00   0.03  0.00  0.00  0.96  0.00  0.00  0.00  0.02  0.00
  HS02004478WS02006287    1.00   0.04  0.00  0.00  0.76  0.20  0.00  0.00  0.64  0.00
  HS02004817HS02004807    1.00   0.00  0.03  0.00  0.97  0.00  0.00  0.00  0.01  0.00
  HS02004807HS02004802    1.00   0.03  0.00  0.00  0.96  0.00  0.00  0.00  0.00  0.00
  YS02001759YS02001757    1.00   0.00  0.00  0.00  1.00  0.00  0.00  0.00  0.16  0.00
  YS02001762YS02001759    1.00   0.00  0.00  0.00  1.00  0.00  0.00  0.00  0.03  0.00
  YS02001765YS02001762    1.00   0.00  0.00  0.00  1.00  0.00  0.00  0.00  0.13  0.00
  YS02001770YS02001767    1.00   0.00  0.00  0.00  1.00  0.00  0.00  0.00  0.00  0.00
  YS02001774YS02001770    1.00   0.00  0.03  0.00  0.97  0.00  0.00  0.00  0.02  0.00
  YS02001779YS02001774    1.00   0.00  0.00  0.00  1.00  0.00  0.00  0.00  0.18  0.00
  YS02001649YS02001757    1.00   0.00  0.00  0.00  1.00  0.00  0.00  0.00  0.16  0.00
  YS02001767YS02001765    1.00   0.00  0.00  0.00  1.00  0.00  0.00  0.00  0.00  0.00
  YS02006561YS02001783    1.00   0.05  0.00  0.00  0.34  0.62  0.00  0.00  0.47  0.00
  YS02001783YS02001784    1.00   0.00  0.05  0.00  0.95  0.00  0.00  0.00  0.01  0.00
  YS02001784YS02001785    1.00   0.00  0.00  0.00  1.00  0.00  0.00  0.00  0.17  0.00
  YS02001788YS02001790    1.00   0.00  0.00  0.00  0.37  0.63  0.00  0.00  0.37  0.00
  YS02001790YS02001791    1.00   0.00  0.00  0.00  0.34  0.66  0.00  0.00  0.48  0.00
  YS02001791YS02001793    1.00   0.00  0.00  0.00  0.38  0.62  0.00  0.00  0.03  0.00
  YS02001910YS02001907    1.00   0.00  0.00  0.00  0.99  0.00  0.00  0.01  0.12  0.00
  YS02001786YS02001788    1.00   0.00  0.00  0.00  0.36  0.64  0.00  0.00  0.00  0.00
  YS02001915YS02001910    1.00   0.00  0.00  0.00  0.99  0.01  0.00  0.00  0.15  0.00
  YS02001918YS02001915    1.00   0.00  0.00  0.00  0.99  0.00  0.00  0.00  0.55  0.00
  YS02001923YS02001920    1.00   0.00  0.00  0.00  1.00  0.00  0.00  0.00  0.84  0.00
  YS02001926YS02001923    1.00   0.00  0.02  0.00  0.14  0.00  0.84  0.00  0.00  0.00
  YS02001929YS02001926    1.00   0.00  0.03  0.00  0.97  0.00  0.00  0.00  0.77  0.00
  YS02001920YS02001918    1.00   0.00  0.00  0.00  1.00  0.00  0.00  0.00  0.00  0.00
  YS02001629YS02163301    1.00   0.04  0.00  0.00  0.96  0.00  0.00  0.00  0.00  0.00
  YS02001619YS02001622    1.00   0.03  0.00  0.00  0.97  0.00  0.00  0.00  0.00  0.00
  YS02001622YS02001625    1.00   0.03  0.00  0.00  0.97  0.00  0.00  0.00  0.04  0.00
  YS02001625YS02001629    1.00   0.03  0.01  0.00  0.94  0.00  0.02  0.00  0.00  0.00
  YS02163301YS02001633    1.00   0.00  0.04  0.00  0.96  0.00  0.00  0.00  0.00  0.00
  YS02163601YS02164001    1.00   0.00  0.02  0.00  0.98  0.00  0.00  0.00  0.00  0.00
  YS02164001YS02001641    1.00   0.00  0.02  0.00  0.98  0.00  0.00  0.00  0.06  0.00
  YS02001641YS02001644    1.00   0.00  0.00  0.00  1.00  0.00  0.00  0.00  0.00  0.00
  YS02001647YS02001649    1.00   0.00  0.04  0.00  0.96  0.00  0.00  0.00  0.01  0.00
  YS02006553YS02006556    1.00   0.00  0.00  0.00  1.00  0.00  0.00  0.00  0.03  0.00
  YS02006556YS02006558    1.00   0.00  0.00  0.00  1.00  0.00  0.00  0.00  0.00  0.00
  YSB6556YSB1171          1.00   0.01  0.02  0.00  0.97  0.00  0.00  0.00  0.00  0.00
  YS02001907YS02006553    1.00   0.00  0.01  0.00  0.99  0.00  0.00  0.00  0.00  0.00
  YS02006558YS02006561    1.00   0.05  0.00  0.00  0.14  0.82  0.00  0.00  0.48  0.00
  YS02001633YS02163601    1.00   0.00  0.00  0.00  1.00  0.00  0.00  0.00  0.15  0.00
  YS02001644YS02001647    1.00   0.00  0.04  0.00  0.96  0.00  0.00  0.00  0.00  0.00
  YS02001745YS02001748    1.00   0.00  0.00  0.00  0.92  0.01  0.00  0.08  0.04  0.00
  YS02001748YS02001751    1.00   0.00  0.00  0.00  0.97  0.03  0.00  0.00  0.15  0.00
  YS02001751YS02001754    1.00   0.00  0.00  0.00  0.95  0.00  0.00  0.05  0.02  0.00
  YS02001754YS02001757    1.00   0.00  0.00  0.00  1.00  0.00  0.00  0.00  0.18  0.00
  YS02001882YS02001884    1.00   0.04  0.00  0.00  0.96  0.00  0.00  0.00  0.00  0.00
  YS02001884YS02001887    1.00   0.02  0.01  0.00  0.97  0.00  0.00  0.00  0.00  0.00
  YS02001890YS02001895    1.00   0.00  0.04  0.00  0.96  0.00  0.00  0.00  0.00  0.00
  YS02001895YS02001898    1.00   0.04  0.00  0.00  0.95  0.00  0.01  0.00  0.00  0.00
  YS02001898YS02001901    1.00   0.04  0.00  0.00  0.96  0.00  0.00  0.00  0.01  0.00
  YS02001901YS02001904    1.00   0.04  0.00  0.00  0.96  0.00  0.00  0.00  0.00  0.00
  YS02001904YS02001907    1.00   0.00  0.04  0.00  0.96  0.00  0.00  0.00  0.00  0.00
  YS02001887YS02001890    1.00   0.00  0.00  0.00  0.99  0.00  0.01  0.00  0.00  0.00
  YS02001652YS02001649    1.00   0.00  0.00  0.00  1.00  0.00  0.00  0.00  0.16  0.00
  YS02001655YS02001652    1.00   0.00  0.00  0.00  0.95  0.00  0.00  0.05  0.02  0.00
  YS02001658YS02001655    1.00   0.00  0.04  0.00  0.94  0.03  0.00  0.00  0.08  0.00
  YS02001661YS02001658    1.00   0.04  0.00  0.00  0.92  0.05  0.00  0.00  0.09  0.00
  YS02001664YS02001661    1.00   0.03  0.00  0.00  0.92  0.05  0.00  0.00  0.19  0.00
  YSB1154YSB6556          1.00   0.03  0.00  0.00  0.97  0.00  0.00  0.00  0.01  0.00
  YSB1174YSB1171          1.00   0.01  0.01  0.00  0.98  0.00  0.00  0.00  0.00  0.00
  YSB1171HS02004479       1.00   0.01  0.00  0.00  0.99  0.00  0.00  0.00  0.10  0.00
  HS02004881HS02006253    1.00   0.01  0.00  0.00  0.57  0.03  0.00  0.38  0.38  0.00
  YS02001793JiankangQianchi    1.00   0.00  0.00  0.00  0.64  0.36  0.00  0.00  0.36  0.00
  YS02001757CaochengTiaoxuchi    1.00   0.00  0.06  0.00  0.94  0.00  0.00  0.00  0.00  0.00
  WSF200WS02003060        1.00   0.00  0.01  0.00  0.99  0.00  0.00  0.00  0.48  0.00
  1                       1.00   0.00  0.00  0.00  0.00  1.00  0.00  0.00  0.47  0.00
  
  
  *************************
  Conduit Surcharge Summary
  *************************
  
  ----------------------------------------------------------------------------
                                                           Hours        Hours 
                         --------- Hours Full --------   Above Full   Capacity
  Conduit                Both Ends  Upstream  Dnstream   Normal Flow   Limited
  ----------------------------------------------------------------------------
  WS02006229WS02006228        3.14      3.23      3.14      4.38         3.14
  WS02006256WS02006235        5.66      5.66      6.71      4.50         0.01
  WS02006253WS02006251        0.49      0.49      0.51      0.01         0.03
  WS02006252WS02006251        0.28      0.28      0.71      0.58         0.01
  WS02006251WS02006249        0.50      0.50      0.54      0.16         0.11
  WS02006249WS02006248        0.51      0.51      0.54      1.94         0.01
  WS02006248WS02006247        0.54      0.54      0.63      0.01         0.01
  WS02006247WS02006245        0.62      0.66      0.62      2.79         0.61
  WS02006245WS02006243        0.65      0.65      0.71      0.16         0.13
  WS02006243WS02006242        0.74      0.74      1.43      0.01         0.01
  WS02006242WS02006240        1.19      1.19      1.69      0.70         0.01
  WS02006240WS02006239        1.29      1.30      1.59      0.31         0.19
  WS02006239WS02006238        1.95      1.96      2.38      0.34         0.24
  WS02006238WS02006235        2.35      2.35      2.62      0.01         0.01
  WS02006235WS02006234        1.65      1.65      2.24      5.58         0.01
  WS02006234WS02006232        1.99      1.99      2.88      0.14         0.14
  WS02006232WS02006231        0.77      0.77      2.88      0.21         0.01
  WS02006231WS02006230        0.57      0.57      0.81      5.79         0.01
  WS02006230WS02006229        3.81      4.18      3.81      6.06         3.81
  WS02006228WS02006109        3.18      3.54      3.18      5.24         3.18
  WS02006116WS02004401        0.20      0.20      0.22      0.01         0.01
  WS02006112WS02006115        0.01      0.01      1.57      0.01         0.01
  WS02006111WS02006112        0.01      0.01      4.47      0.01         0.01
  WS02006110WS02006113        0.01      0.01      3.34      0.01         0.01
  WS02006109WS02006110        1.07      1.07      3.54      1.09         0.01
  WS02004411WS02004412        0.01      0.01      0.01      0.17         0.01
[...]
  YS02001765YS02001762        5.84      5.84      5.87      0.01         0.01
  YS02001770YS02001767        5.81      5.81      5.81      0.19         0.68
  YS02001774YS02001770        5.80      5.80      5.86      0.01         0.01
  YS02001779YS02001774        5.68      5.68      5.86      0.01         0.01
  YS02001649YS02001757        5.87      5.87      5.98      0.01         0.01
  YS02001767YS02001765        5.81      5.81      5.84      0.01         0.01
  YS02006561YS02001783        0.77      0.77      1.04      0.01         0.01
  YS02001783YS02001784        1.02      1.04      1.02      1.40         1.01
  YS02001784YS02001785        0.97      1.02      0.97      2.39         0.97
  YS02001788YS02001790        0.92      0.92      1.78      0.01         0.01
  YS02001790YS02001791        1.78      1.78      1.89      0.87         0.85
  YS02001791YS02001793        1.89      1.89      2.25      0.01         0.01
  YS02001910YS02001907        1.06      1.06      1.77      0.01         0.01
  YS02001786YS02001788        0.92      0.97      0.92      1.94         0.91
  YS02001915YS02001910        0.89      0.89      1.06      0.01         0.01
  YS02001918YS02001915        0.71      0.71      0.89      0.01         0.01
  YS02001923YS02001920        0.53      0.53      0.74      0.01         0.01
  YS02001920YS02001918        0.71      0.71      0.74      0.01         0.01
  YS02001629YS02163301        5.80      5.80      5.81      0.01         0.01
  YS02001619YS02001622        5.47      5.47      5.51      0.01         0.01
  YS02001622YS02001625        5.50      5.50      5.76      0.01         0.01
  YS02001625YS02001629        5.48      5.48      5.76      0.01         0.01
  YS02163301YS02001633        5.81      5.81      5.84      0.01         0.01
  YS02163601YS02164001        5.84      5.84      5.87      0.01         0.01
  YS02164001YS02001641        5.84      5.84      5.85      0.01         0.03
  YS02001641YS02001644        5.85      5.85      5.85      1.52         1.67
  YS02001647YS02001649        5.75      5.75      5.87      0.01         0.01
  YS02006553YS02006556        1.30      1.30      1.86      0.01         0.01
  YS02006556YS02006558        1.52      1.52      1.93      0.01         0.01
  YS02001907YS02006553        2.41      2.41      2.62      0.01         0.01
  YS02006558YS02006561        0.90      1.26      0.90      2.23         0.90
  YS02001633YS02163601        5.83      5.83      5.87      0.01         0.01
  YS02001644YS02001647        5.75      5.75      5.85      0.01         0.01
  YS02001745YS02001748        0.01      0.01      5.30      0.01         0.01
  YS02001748YS02001751        5.36      5.36      5.48      0.01         0.01
  YS02001751YS02001754        5.48      5.48      5.69      0.01         0.01
  YS02001754YS02001757        5.74      5.74      5.98      0.01         0.01
  YS02001882YS02001884        0.91      0.91      0.93      0.01         0.01
  YS02001884YS02001887        0.97      0.97      0.99      0.01         0.01
  YS02001890YS02001895        0.88      0.88      1.08      0.01         0.01
  YS02001895YS02001898        0.87      0.87      0.88      0.01         0.01
  YS02001898YS02001901        0.89      0.89      0.96      0.01         0.01
  YS02001901YS02001904        0.94      0.94      0.96      0.01         0.01
  YS02001904YS02001907        0.94      0.94      1.87      0.01         0.01
  YS02001887YS02001890        1.02      1.02      1.04      0.01         0.01
  YS02001652YS02001649        5.76      5.76      5.87      0.01         0.01
  YS02001655YS02001652        5.50      5.50      5.73      0.01         0.01
  YS02001658YS02001655        5.33      5.33      5.50      0.01         0.01
  YS02001661YS02001658        0.16      0.16      5.33      0.01         0.01
  YS02001664YS02001661        0.01      0.01      1.34      0.01         0.01
  HS02004881HS02006253        0.01      0.01      0.08      0.01         0.01
  YS02001793JiankangQianchi        2.16      2.16      3.86      0.01         0.01
  YS02001757CaochengTiaoxuchi        5.21      5.21      5.98      0.01         0.01
  
  
  ***************
  Pumping Summary
  ***************
  
  ---------------------------------------------------------------------------------------------------------
                                                  Min       Avg       Max     Total     Power    % Time Off
                        Percent   Number of      Flow      Flow      Flow    Volume     Usage    Pump Curve
  Pump                 Utilized   Start-Ups       LPS       LPS       LPS  10^6 ltr     Kw-hr    Low   High
  ---------------------------------------------------------------------------------------------------------
  CC-Pump-1               53.18           3      0.00    140.29    200.00     1.920      1.33    0.0    0.0
  CC-Pump-2               17.02           3      0.00     97.23    199.90     0.480      0.49    0.0    0.0
  JK-Pump-1               63.82           5      0.00    233.73    300.00     3.842     58.66    0.0    0.0
  JK-Pump-2               57.45           5      0.00    427.13    683.00     6.285     95.03    0.0   96.3
  XR-Pump-1              100.00           1      0.00     94.52     95.00     2.622     27.19    0.0    0.0
  XR-Pump-2              100.00           1      0.00     92.89     95.00     2.508     24.72    0.0    0.0
  XR-Pump-3               97.87           2      0.00     92.95     95.00     2.451     23.43    0.0    0.0
  XR-Pump-4               97.87           2      0.00     92.95     95.00     2.451     23.43    0.0    0.0
  
  
  ***************************
  Link Pollutant Load Summary
  ***************************
  
  ------------------------------------------------------------------------------------------
                                 COD            SS            TN            TP         NH4-N
  Link                            kg            kg            kg            kg            kg
  ------------------------------------------------------------------------------------------
  WS02003066WSF200           720.942      1326.309        19.753         1.766        10.504
  WS02006287WS02006284       268.008       498.096         9.346         0.943         5.214
  WS02006284WS02006280       268.492       498.872         9.393         0.949         5.243
  WS02006280WS02006229       268.460       498.810         9.391         0.949         5.242
  WS02006229WS02006228       712.534      1311.866        19.090         1.683        10.095
  WS02006256WS02006235       201.384       367.888         4.544         0.358         2.311
  WS02006253WS02006251        52.514       101.099         1.159         0.086         0.573
  WS02006252WS02006251       202.197       365.839         4.257         0.309         2.097
  WS02006251WS02006249       247.120       453.281         5.273         0.386         2.604
  WS02006249WS02006248       246.240       451.618         5.250         0.384         2.591
  WS02006248WS02006247       246.478       452.068         5.256         0.385         2.594
  WS02006247WS02006245       246.313       451.761         5.251         0.384         2.592
  WS02006245WS02006243       245.733       450.785         5.234         0.383         2.583
  WS02006243WS02006242       245.807       450.919         5.237         0.383         2.584
  WS02006242WS02006240       245.477       450.344         5.228         0.382         2.580
  WS02006240WS02006239       246.236       451.748         5.245         0.383         2.588
  WS02006239WS02006238       247.990       454.746         5.301         0.389         2.619
  WS02006238WS02006235       248.962       456.268         5.333         0.392         2.637
  WS02006235WS02006234       444.756       814.234         9.728         0.737         4.870
  WS02006234WS02006232       444.912       814.487         9.737         0.738         4.875
  WS02006232WS02006231       444.644       814.006         9.729         0.738         4.871
  WS02006231WS02006230       444.390       813.574         9.723         0.737         4.868
  WS02006230WS02006229       444.431       813.674         9.719         0.737         4.865
  WS02006228WS02006109       712.352      1311.537        19.080         1.682        10.089
  WS02006116WS02004401       727.297      1337.596        19.943         1.784        10.607
  WS02006115WS02006116       727.942      1338.742        19.964         1.786        10.619
  WS02006113WS02006111       719.833      1323.363        19.842         1.778        10.567
  WS02006112WS02006115       728.686      1340.033        19.998         1.789        10.638
  WS02006111WS02006112       719.744      1323.199        19.839         1.777        10.565
  WS02006110WS02006113       720.146      1323.908        19.859         1.780        10.577
  WS02006109WS02006110       720.732      1324.905        19.893         1.783        10.598
  WS02004411WS02004412       722.865      1329.623        19.851         1.777        10.563
  WS02004401WS02004402       726.543      1336.284        19.911         1.780        10.589
  WS02004413WS02003067       721.224      1326.807        19.764         1.767        10.511
  WS02004412WS02004413       722.293      1328.629        19.827         1.775        10.548
  WS02004410WS02004411       723.352      1330.477        19.870         1.779        10.573
  WS02004409WS02004410       723.909      1331.451        19.893         1.782        10.586
  WS02004407WS02004409       724.332      1332.203        19.906         1.783        10.593
  WS02004406WS02004407       724.431      1332.395        19.903         1.782        10.591
  WS02004405WS02004406       725.569      1334.335        19.968         1.790        10.630
  WS02004404WS02004405       725.925      1335.029        19.952         1.787        10.618
  WS02004403WS02004404       725.238      1333.998        19.861         1.775        10.560
  WS02004402WS02004403       725.886      1335.126        19.889         1.778        10.577
  WS02004139WS02001211      1411.001      2324.463       117.367        14.373        72.480
  WS02004138WS02004139      1417.445      2335.109       117.886        14.436        72.799
  WS02003067WS02003066       721.082      1326.554        19.759         1.767        10.508
  WS02001213WS02003059      1443.678      2376.020       120.719        14.795        74.585
  WS02001212WS02001213      1453.012      2391.347       121.500        14.891        75.068
  WS02001211WS02001212      1455.141      2394.808       121.687        14.914        75.184
  WS02003072WS02003073      2266.001      3863.863       150.415        17.808        91.313
  WS02003069WS02003072      2270.542      3871.234       150.813        17.857        91.560
  WS02003060WS02003069      2272.803      3875.027       150.975        17.876        91.659
  WS02003059WS02003060      1440.590      2370.862       120.487        14.767        74.443
  HS02004901HS02004770        10.269        19.476         0.195         0.015         0.091
  HS02004876HS02004881        37.312        72.566         0.842         0.062         0.416
  HS02004870HS02004876        28.156        54.618         0.677         0.051         0.338
  HS02004842HS02004848         5.466        10.276         0.115         0.008         0.053
  HS02004837HS02004842        10.071        17.580         0.584         0.067         0.347
  HS02004830HS02004837        65.636       112.698         4.557         0.546         2.785
  HS02004824HS02004830        66.387       113.901         4.628         0.555         2.830
  HS02004817HS02004824        88.202       156.965         5.083         0.584         3.051
  HS02004770HS02004777        39.292        75.457         0.819         0.055         0.377
  HS02004799HS02004480       131.390       245.327         3.680         0.335         1.932
  HS02004792HS02004799       119.071       220.629         3.496         0.327         1.853
  HS02004788HS02004792        68.388       126.839         2.388         0.235         1.309
  HS02004785HS02004788        40.728        77.748         0.969         0.074         0.471
  HS02004777HS02004785        40.055        76.657         0.909         0.067         0.434
  HS02004480HS02004478       165.920       312.527         4.243         0.374         2.195
  HS02004479HS02004480        38.138        72.961         0.884         0.079         0.462
  HS02004862HS02004870        21.013        40.110         0.536         0.043         0.270
  HS02004848HS02004852         8.057        15.278         0.167         0.011         0.077
  HS02004856HS02004862        14.070        27.336         0.284         0.019         0.133
  HS02004852HS02004856         8.063        15.288         0.167         0.011         0.077
  HS02004802HS02004478       102.877       186.866         5.163         0.576         3.055
  HS02004478WS02006287       268.211       498.441         9.363         0.945         5.224
  HS02004817HS02004807        86.882       154.848         4.957         0.568         2.972
  HS02004807HS02004802       103.106       187.224         5.194         0.580         3.075
  YS02001759YS02001757       309.617       561.064         6.245         0.432         3.054
  YS02001762YS02001759       166.402       304.073         3.522         0.248         1.742
  YS02001765YS02001762       166.893       305.532         3.551         0.250         1.759
  YS02001770YS02001767       167.352       307.979         3.381         0.224         1.643
  YS02001774YS02001770       204.506       392.110         3.958         0.262         1.913
  YS02001779YS02001774       203.747       390.552         4.050         0.277         1.977
  YS02001649YS02001757       337.594       605.598         6.832         0.470         3.291
  YS02001767YS02001765       167.850       307.783         3.584         0.253         1.777
  YS02006561YS02001783       936.078      1716.617        19.833         1.488         9.898
  YS02001783YS02001784       935.942      1716.392        19.829         1.488         9.896
  YS02001784YS02001785       943.240      1728.074        20.541         1.577        10.341
  YS02001788YS02001790       943.815      1728.990        20.614         1.587        10.388
  YS02001790YS02001791       944.907      1730.761        20.721         1.600        10.455
  YS02001791YS02001793       944.775      1730.515        20.716         1.600        10.452
  YS02001910YS02001907       330.191       599.364         8.235         0.642         4.255
  YS02001786YS02001788       943.416      1728.357        20.568         1.581        10.359
  YS02001915YS02001910       330.283       599.511         8.191         0.636         4.225
  YS02001918YS02001915       160.002       278.112         4.663         0.434         2.539
  YS02001923YS02001920       137.639       241.460         2.676         0.188         1.303
  YS02001926YS02001923       136.671       239.883         2.594         0.178         1.253
  YS02001929YS02001926       136.167       239.022         2.555         0.174         1.228
  YS02001920YS02001918       157.929       274.043         4.593         0.428         2.500
  YS02001629YS02163301       103.527       183.441         2.171         0.140         1.012
  YS02001619YS02001622       146.386       262.913         3.031         0.197         1.414
  YS02001622YS02001625       145.224       261.075         3.003         0.195         1.401
  YS02001625YS02001629       104.625       185.259         2.195         0.142         1.023
  YS02163301YS02001633       103.243       182.963         2.164         0.140         1.009
  YS02163601YS02164001       362.020       646.162         7.115         0.502         3.403
  YS02164001YS02001641       361.523       645.322         7.096         0.500         3.392
  YS02001641YS02001644       361.751       645.631         7.094         0.500         3.391
  YS02001647YS02001649       395.903       716.957         7.926         0.548         3.797
  YS02006553YS02006556       657.654      1200.397        14.236         1.095         7.180
  YS02006556YS02006558       657.578      1200.238        14.204         1.091         7.159
  YSB6556YSB1171              21.948        42.189         0.451         0.038         0.229
  YS02001907YS02006553       657.781      1200.659        14.250         1.097         7.189
  YS02006558YS02006561       936.120      1716.693        19.834         1.488         9.898
  YS02001633YS02163601       362.720       647.251         7.095         0.498         3.387
  YS02001644YS02001647       402.275       728.134         8.021         0.555         3.840
  YS02001745YS02001748       209.976       386.308         4.721         0.329         2.356
  YS02001748YS02001751       208.058       382.671         4.764         0.339         2.392
  YS02001751YS02001754       207.083       381.071         4.746         0.338         2.384
  YS02001754YS02001757       207.839       382.204         4.910         0.360         2.491
  YS02001882YS02001884         2.514         4.325         0.051         0.004         0.025
  YS02001884YS02001887         6.974        12.357         0.136         0.011         0.068
  YS02001890YS02001895       389.421       720.558         7.188         0.539         3.508
  YS02001895YS02001898       389.237       720.298         7.182         0.539         3.504
  YS02001898YS02001901       389.028       719.939         7.177         0.538         3.502
  YS02001901YS02001904       388.882       719.729         7.184         0.540         3.507
  YS02001904YS02001907       389.084       720.029         7.237         0.547         3.541
  YS02001887YS02001890       390.235       721.785         7.243         0.546         3.541
  YS02001652YS02001649       153.373       280.931         3.124         0.225         1.465
  YS02001655YS02001652       153.932       281.846         3.138         0.226         1.472
  YS02001658YS02001655       153.414       281.024         3.051         0.214         1.415
  YS02001661YS02001658       157.845       288.952         3.141         0.220         1.457
  YS02001664YS02001661       178.111       322.544         3.592         0.251         1.663
  YSB1154YSB6556              21.530        41.523         0.402         0.032         0.198
  YSB1174YSB1171              14.652        28.287         0.298         0.024         0.149
  YSB1171HS02004479           38.097        72.895         0.887         0.079         0.465
  HS02004881HS02006253        42.188        82.326         0.931         0.068         0.458
  YS02001793JiankangQianchi       948.966      1737.329        20.900         1.619        10.558
  YS02001757CaochengTiaoxuchi       508.790       912.295        10.818         0.778         5.329
  WSF200WS02003060           720.961      1326.328        19.757         1.767        10.507
  1                         2272.396      3873.691       151.137        17.900        91.769
  CC-Pump-1                  161.620       292.402         3.400         0.247         1.674
  CC-Pump-2                   40.465        73.247         0.851         0.062         0.419
  JK-Pump-1                  242.014       443.609         5.415         0.425         2.749
  JK-Pump-2                  462.771       862.376         9.638         0.725         4.802
  XR-Pump-1                  379.254       623.641        31.844         3.905        19.681
  XR-Pump-2                  355.493       585.624        29.569         3.621        18.261
  XR-Pump-3                  343.215       565.981        28.394         3.474        17.527
  XR-Pump-4                  343.215       565.981        28.394         3.474        17.527
  

  Analysis begun on:  Thu Jul 15 08:23:32 2021
  Analysis ended on:  Thu Jul 15 08:23:36 2021
  Total elapsed time: 00:00:04