
  EPA STORM WATER MANAGEMENT MODEL - VERSION 5.1 (Build 5.3.0.dev0)
  --------------------------------------------------------------

  WARNING 04: minimum elevation drop used for Conduit WS02004404WS02004405
  WARNING 03: negative offset ignored for Link YS02001904YS02001907
  
  *********************************************************
  NOTE: The summary statistics displayed in this report are
  based on results found at every computational time step,  
  not just on results from each reporting time step.
  *********************************************************
  
  ****************
  Analysis Options
  ****************
  Flow Units ............... LPS
  Process Models:
    Rainfall/Runoff ........ YES
    RDII ................... NO
    Snowmelt ............... NO
    Groundwater ............ NO
    Flow Routing ........... YES
    Ponding Allowed ........ NO
    Water Quality .......... YES
  Infiltration Method ...... HORTON
  Flow Routing Method ...... DYNWAVE
  Surcharge Method ......... EXTRAN
  Starting Date ............ 08/28/2015 08:00:00
  Ending Date .............. 08/28/2015 15:50:00
  Antecedent Dry Days ...... 8.0
  Report Time Step ......... 00:01:00
  Wet Time Step ............ 00:01:00
  Dry Time Step ............ 00:01:00
  Routing Time Step ........ 5.00 sec
  Variable Time Step ....... YES
  Maximum Trials ........... 8
  Number of Threads ........ 4
  Head Tolerance ........... 0.001500 m
  
  
  **************************        Volume         Depth
  Runoff Quantity Continuity     hectare-m            mm
  **************************     ---------       -------
  Total Precipitation ......         5.556        12.164
  Evaporation Loss .........         0.000         0.000
  Infiltration Loss ........         1.002         2.194
  Surface Runoff ...........         3.688         8.075
  Final Storage ............         0.866         1.897
  Continuity Error (%) .....        -0.019
  
  
  **************************           COD            SS            TN            TP         NH4-N
  Runoff Quality Continuity             kg            kg            kg            kg            kg
  **************************    ----------    ----------    ----------    ----------    ----------
  Initial Buildup ..........     41378.656     70582.865      1804.177       168.684      1032.807
  Surface Buildup ..........        19.275        34.271         2.335         0.213         1.362
  Wet Deposition ...........         0.000         0.000         0.000         0.000         0.000
  Sweeping Removal .........         0.000         0.000         0.000         0.000         0.000
  Infiltration Loss ........        84.023       157.502         1.599         0.111         0.761
  BMP Removal ..............         0.000         0.000         0.000         0.000         0.000
  Surface Runoff ...........      3122.074      5752.154        60.620         4.098        28.771
  Remaining Buildup ........     38190.779     64705.500      1744.271       164.686      1004.628
  Continuity Error (%) .....         0.003         0.003         0.001         0.001         0.001
  
  
  **************************        Volume        Volume
  Flow Routing Continuity        hectare-m      10^6 ltr
  **************************     ---------     ---------
  Dry Weather Inflow .......         0.616         6.165
  Wet Weather Inflow .......         3.687        36.870
  Groundwater Inflow .......         0.000         0.000
  RDII Inflow ..............         0.000         0.000
  External Inflow ..........         0.102         1.024
  External Outflow .........         1.769        17.689
  Flooding Loss ............         2.194        21.938
  Evaporation Loss .........         0.000         0.000
  Exfiltration Loss ........         0.000         0.000
  Initial Stored Volume ....         0.076         0.761
  Final Stored Volume ......         0.634         6.341
  Continuity Error (%) .....        -2.566
  
  
  **************************           COD            SS            TN            TP         NH4-N
  Quality Routing Continuity            kg            kg            kg            kg            kg
  **************************    ----------    ----------    ----------    ----------    ----------
  Dry Weather Inflow .......      1541.201      2465.922       147.955        18.494        92.472
  Wet Weather Inflow .......      3121.233      5750.701        60.602         4.097        28.763
  Groundwater Inflow .......         0.000         0.000         0.000         0.000         0.000
  RDII Inflow ..............         0.000         0.000         0.000         0.000         0.000
  External Inflow ..........       183.418       293.469        17.608         2.201        11.005
  External Outflow .........      2161.425      3681.364       146.612        17.430        89.180
  Flooding Loss ............      1987.709      3631.775        51.835         4.514        27.285
  Exfiltration Loss ........         0.000         0.000         0.000         0.000         0.000
  Mass Reacted .............         0.000         0.000         0.000         0.000         0.000
  Initial Stored Mass ......         0.000         0.000         0.000         0.000         0.000
  Final Stored Mass ........       556.590       957.642        24.201         2.569        13.979
  Continuity Error (%) .....         2.892         2.812         1.555         1.130         1.358
  
  
  *************************
  Highest Continuity Errors
  *************************
  Node HS02004842 (14.53%)
  Node JK-storage (-11.50%)
  Node YS02001884 (11.50%)
  Node YSB1171 (2.74%)
  Node HS02004817 (2.73%)
  
  
  ***************************
  Time-Step Critical Elements
  ***************************
  Link WS02006252WS02006251 (55.61%)
  Link WS02006280WS02006229 (13.40%)
  Link WS02006238WS02006235 (7.62%)
  Link YS02001793JiankangQianchi (6.11%)
  Link YS02006556YS02006558 (4.11%)
  
  
  ********************************
  Highest Flow Instability Indexes
  ********************************
  Link WS02006113WS02006111 (51)
  Link YS02163601YS02164001 (38)
  Link YS02001619YS02001622 (37)
  Link YS02163301YS02001633 (37)
  Link YS02001629YS02163301 (37)
  
  
  *************************
  Routing Time Step Summary
  *************************
  Minimum Time Step           :     0.50 sec
  Average Time Step           :     1.37 sec
  Maximum Time Step           :     5.00 sec
  Percent in Steady State     :    -0.00
  Average Iterations per Step :     4.37
  Percent Not Converging      :    21.36
  
  
  ***************************
  Subcatchment Runoff Summary
  ***************************
  
  ------------------------------------------------------------------------------------------------------------------------------
                            Total      Total      Total      Total     Imperv       Perv      Total       Total     Peak  Runoff
                           Precip      Runon       Evap      Infil     Runoff     Runoff     Runoff      Runoff   Runoff   Coeff
  Subcatchment                 mm         mm         mm         mm         mm         mm         mm    10^6 ltr      LPS
  ------------------------------------------------------------------------------------------------------------------------------
  sub0                      12.16       0.00       0.00       0.65      11.27       0.20      11.47        0.01     1.99   0.943
  sub1                      12.16       0.00       0.00       1.12      10.73       0.22      10.95        0.07    14.96   0.900
  sub2                      12.16       0.00       0.00       4.23       7.58       0.27       7.85        0.07    15.08   0.646
  sub3                      12.16       0.00       0.00       4.29       7.54       0.21       7.75        0.17    34.61   0.637
  sub4                      12.16       0.00       0.00       1.19      10.57       0.14      10.71        0.22    42.34   0.881
  sub5                      12.16       0.00       0.00       0.69      11.21       0.16      11.38        0.13    26.18   0.935
  sub7                      12.16       0.00       0.00       0.88      11.01       0.22      11.22        0.04     7.95   0.923
  sub8                      12.16       0.00       0.00       0.89      11.00       0.21      11.20        0.07    14.89   0.921
  sub9                      12.16       0.00       0.00       0.89      10.99       0.21      11.20        0.05    11.18   0.921
  sub10                     12.16       0.00       0.00       0.79      11.10       0.18      11.28        0.12    25.49   0.928
  sub11                     12.16       0.00       0.00       0.78      11.12       0.19      11.31        0.13    27.35   0.930
  sub12                     12.16       0.00       0.00       1.27      10.53       0.31      10.85        0.09    20.52   0.892
  sub14                     12.16       0.00       0.00       0.89      10.99       0.20      11.20        0.11    22.08   0.920
  sub15                     12.16       0.00       0.00       3.28       8.45       0.37       8.82        0.15    32.49   0.725
  sub16                     12.16       0.00       0.00       3.51       8.11       0.50       8.61        0.09    20.36   0.708
  sub17                     12.16       0.00       0.00       3.41       8.23       0.48       8.71        0.07    16.72   0.716
  sub22                     12.16       0.00       0.00       4.80       6.89       0.43       7.32        0.46   102.62   0.602
  sub23                     12.16       0.00       0.00       4.05       7.62       0.45       8.07        0.38    85.35   0.663
  sub60                     12.16       0.00       0.00       1.42       8.82       0.04       8.86        2.69   336.84   0.729
  sub61                     12.16       0.00       0.00       2.01       8.94       0.06       9.00        2.78   399.45   0.740
  sub62                     12.16       0.00       0.00       0.92       9.73       0.05       9.78        3.01   415.79   0.804
  sub63                     12.16       0.00       0.00       3.46       7.82       0.06       7.88        2.39   361.21   0.648
  sub64                     12.16       0.00       0.00       1.78       8.47       0.04       8.51        2.59   320.97   0.699
  sub65                     12.16       0.00       0.00       1.54       8.61       0.04       8.65        2.66   326.54   0.711
  sub66                     12.16       0.00       0.00       3.49       7.26       0.04       7.30        2.24   290.53   0.600
  sub67                     12.16       0.00       0.00       0.91      10.24       0.07      10.31        3.18   494.23   0.848
  sub68                     12.16       0.00       0.00       1.64       9.40       0.06       9.46        2.91   432.52   0.778
  sub69                     12.16       0.00       0.00       1.73       9.72       0.09       9.82        2.29   383.95   0.807
  sub70                     12.16      10.02       0.00       6.98      13.09       0.56      13.65        3.12   394.93   0.615
  sub71                     12.16       0.00       0.00       0.93       9.48       0.05       9.53        2.25   296.34   0.783
  sub72                     12.16       0.00       0.00       0.83       7.62       0.02       7.64        1.56   151.13   0.628
  1                         12.16      13.29       0.00       1.37      14.64       3.94      18.57        4.36   399.24   0.730
  2                         12.16       0.00       0.00       3.02       2.89       1.65       4.55        1.82   245.52   0.374
  
  
  ****************************
  Subcatchment Washoff Summary
  ****************************
  
  ------------------------------------------------------------------------------------------
                                 COD            SS            TN            TP         NH4-N
  Subcatchment                    kg            kg            kg            kg            kg
  ------------------------------------------------------------------------------------------
  sub0                         2.176         4.147         0.037         0.003         0.018
  sub1                         9.268        18.138         0.173         0.012         0.083
  sub2                         5.563        10.570         0.119         0.008         0.054
  sub3                        13.747        25.918         0.288         0.019         0.132
  sub4                        21.530        42.606         0.429         0.026         0.205
  sub5                        21.300        41.103         0.378         0.029         0.183
  sub7                         4.748         9.424         0.090         0.006         0.043
  sub8                         7.142        14.500         0.143         0.008         0.069
  sub9                         6.100        12.212         0.118         0.007         0.057
  sub10                       17.532        34.266         0.321         0.023         0.155
  sub11                       17.086        33.770         0.320         0.022         0.154
  sub12                       14.392        27.890         0.260         0.019         0.125
  sub14                       13.021        25.823         0.247         0.016         0.119
  sub15                       16.182        30.744         0.313         0.023         0.146
  sub16                       10.318        19.555         0.197         0.015         0.092
  sub17                        9.471        17.789         0.175         0.014         0.082
  sub22                       48.821        90.813         0.932         0.070         0.434
  sub23                       29.138        56.181         0.627         0.041         0.287
  sub60                      203.703       376.194         4.083         0.248         1.956
  sub61                      251.300       461.579         4.699         0.320         2.261
  sub62                      262.762       491.326         5.157         0.324         2.474
  sub63                      185.047       334.594         3.739         0.261         1.731
  sub64                      253.867       452.095         4.687         0.339         2.235
  sub65                      260.106       465.192         4.834         0.344         2.309
  sub66                      146.558       263.078         3.037         0.197         1.417
  sub67                      388.205       718.566         6.963         0.510         3.363
  sub68                      276.714       513.393         5.318         0.356         2.539
  sub69                      247.676       464.012         4.658         0.325         2.225
  sub70                      413.256       778.342         8.287         0.572         3.877
  sub71                      173.740       327.842         3.597         0.206         1.720
  sub72                      136.329       239.316         2.558         0.174         1.230
  1                          280.724       531.718         5.751         0.398         2.660
  2                           35.485        61.812         1.030         0.062         0.437
  ------------------------------------------------------------------------------------------
  System                    3783.006      6994.507        73.566         4.996        34.873
  
  
  ******************
  Node Depth Summary
  ******************
  
  ---------------------------------------------------------------------------------
                                 Average  Maximum  Maximum  Time of Max    Reported
                                   Depth    Depth      HGL   Occurrence   Max Depth
  Node                 Type       Meters   Meters   Meters  days hr:min      Meters
  ---------------------------------------------------------------------------------
  WS02001211           JUNCTION     0.76     0.81     5.65     0  03:10        0.81
  WS02001212           JUNCTION     0.47     0.53     5.60     0  03:09        0.53
  WS02001213           JUNCTION     0.70     0.80     5.56     0  03:08        0.80
  WS02003069           JUNCTION     0.48     0.64     5.23     0  03:07        0.64
  WS02003072           JUNCTION     0.55     0.69     5.07     0  03:08        0.69
  WS02003073           JUNCTION     0.33     0.43     4.50     0  03:08        0.43
  WS02003060           JUNCTION     0.43     0.57     5.50     0  03:06        0.57
  WS02003066           JUNCTION     0.22     0.34     5.89     0  03:05        0.34
  WS02003059           JUNCTION     0.75     0.85     5.54     0  03:08        0.85
  WS02003067           JUNCTION     0.54     0.76     6.08     0  03:05        0.76
  WS02004401           JUNCTION     0.65     1.03     7.03     0  03:03        1.03
  WS02004402           JUNCTION     0.68     1.04     7.00     0  03:03        1.04
  WS02004403           JUNCTION     0.70     1.04     6.97     0  03:03        1.03
  WS02004404           JUNCTION     0.78     1.09     6.94     0  03:03        1.09
  WS02004406           JUNCTION     0.78     1.06     6.89     0  03:03        1.06
  WS02004409           JUNCTION     0.46     0.79     6.56     0  03:05        0.79
  WS02004410           JUNCTION     0.48     0.79     6.51     0  03:05        0.79
  WS02004411           JUNCTION     0.50     0.79     6.47     0  03:05        0.79
  WS02004412           JUNCTION     0.51     0.79     6.43     0  03:05        0.79
  WS02004413           JUNCTION     0.67     0.94     6.41     0  03:05        0.94
  WS02004405           JUNCTION     0.77     1.08     6.93     0  03:03        1.08
  WS02006109           JUNCTION     0.73     1.14     7.76     0  03:01        1.13
  WS02006110           JUNCTION     0.73     1.03     7.62     0  03:01        1.02
  WS02006111           JUNCTION     0.21     0.44     7.15     0  03:03        0.44
  WS02006112           JUNCTION     0.82     1.26     7.14     0  03:04        1.25
  WS02006113           JUNCTION     0.32     0.53     7.42     0  03:01        0.53
  WS02006115           JUNCTION     0.54     0.95     7.09     0  03:03        0.95
  WS02006116           JUNCTION     0.62     1.03     7.07     0  03:03        1.02
  WS02006230           JUNCTION     0.70     1.24     7.98     0  03:02        1.24
  WS02006231           JUNCTION     0.46     0.90     8.03     0  03:03        0.90
  WS02006232           JUNCTION     0.59     1.02     8.06     0  03:02        1.01
  WS02006234           JUNCTION     0.51     1.05     8.20     0  06:22        0.93
  WS02006235           JUNCTION     0.54     1.14     8.30     0  06:22        1.01
  WS02006238           JUNCTION     0.56     1.18     8.32     0  04:52        1.04
  WS02006240           JUNCTION     0.45     1.18     8.47     0  04:52        0.97
  WS02006242           JUNCTION     0.50     1.32     8.59     0  04:52        1.04
  WS02006243           JUNCTION     0.38     1.25     8.67     0  04:52        0.94
  WS02006245           JUNCTION     0.35     1.23     8.71     0  06:22        0.92
  WS02006247           JUNCTION     0.36     1.22     8.72     0  06:22        0.92
  WS02006248           JUNCTION     0.30     1.10     8.69     0  04:52        0.87
  WS02006249           JUNCTION     0.32     1.09     8.69     0  04:52        0.86
  WS02006239           JUNCTION     0.51     1.18     8.38     0  04:52        1.02
  WS02006251           JUNCTION     0.29     0.81     8.48     0  04:53        0.80
  WS02006252           JUNCTION     0.19     0.59     8.83     0  04:50        0.59
  WS02006253           JUNCTION     0.32     0.83     8.48     0  04:53        0.81
  WS02006256           JUNCTION     1.62     2.35     9.28     0  00:00        2.35
  WS02004138           JUNCTION     0.18     0.20     7.45     0  00:00        0.19
  WS02004139           JUNCTION     0.70     0.76     5.67     0  03:10        0.76
  WS02004407           JUNCTION     0.21     0.34     6.66     0  03:04        0.34
  WS02006228           JUNCTION     0.73     1.23     7.88     0  03:02        1.22
  WS02006229           JUNCTION     0.71     1.25     7.94     0  03:02        1.25
  WS02006280           JUNCTION     0.07     0.20     8.47     0  03:02        0.20
  WS02006284           JUNCTION     0.37     0.56     8.96     0  03:02        0.56
  WS02006287           JUNCTION     0.10     0.30     9.25     0  03:01        0.30
  WSF200               JUNCTION     0.20     0.37     5.60     0  03:06        0.37
  HS02004901           JUNCTION     0.13     0.29    10.12     0  03:01        0.29
  HS02004881           JUNCTION     0.01     0.04     9.07     0  03:01        0.04
  HS02004876           JUNCTION     0.05     0.12     9.15     0  03:01        0.12
  HS02004870           JUNCTION     0.02     0.07     9.35     0  03:01        0.07
  HS02004862           JUNCTION     0.02     0.08     9.46     0  03:01        0.08
  HS02004856           JUNCTION     0.08     0.13     9.55     0  03:01        0.13
  HS02004852           JUNCTION     0.01     0.05     9.56     0  03:01        0.05
  HS02004848           JUNCTION     0.01     0.05     9.65     0  03:01        0.05
  HS02004842           JUNCTION     0.34     0.38     9.65     0  03:01        0.38
  HS02004837           JUNCTION     0.03     0.07     9.65     0  03:01        0.07
  HS02004830           JUNCTION     0.04     0.08     9.55     0  03:01        0.08
  HS02004824           JUNCTION     0.02     0.06     9.47     0  03:01        0.06
  HS02004817           JUNCTION     0.45     0.61     9.45     0  03:01        0.61
  HS02004807           JUNCTION     0.13     0.28     9.45     0  03:01        0.28
  HS02004802           JUNCTION     0.17     0.31     9.44     0  03:01        0.31
  HS02004799           JUNCTION     0.13     0.35     9.56     0  03:01        0.35
  HS02004792           JUNCTION     0.04     0.15     9.67     0  03:01        0.15
  HS02004788           JUNCTION     0.03     0.11    10.01     0  03:01        0.11
  HS02004785           JUNCTION     0.05     0.18    10.09     0  03:01        0.18
  HS02004777           JUNCTION     0.15     0.31    10.11     0  03:01        0.31
  HS02004770           JUNCTION     0.12     0.29    10.12     0  03:01        0.29
  HS02004480           JUNCTION     0.09     0.28     9.52     0  03:01        0.28
  HS02004479           JUNCTION     0.12     0.32     9.52     0  03:01        0.32
  HS02004478           JUNCTION     0.07     0.20     9.42     0  03:01        0.20
  YS02001745           JUNCTION     0.73     0.93     8.45     0  03:07        0.93
  YS02001748           JUNCTION     1.13     1.49     8.57     0  02:28        1.36
  YS02001751           JUNCTION     1.31     1.57     8.45     0  02:17        1.56
  YS02001754           JUNCTION     1.56     1.83     8.44     0  03:00        1.82
  YS02001762           JUNCTION     1.76     2.04     8.44     0  03:00        2.03
  YS02001765           JUNCTION     1.71     1.99     8.44     0  03:50        1.97
  YS02001767           JUNCTION     1.68     1.95     8.44     0  03:50        1.93
  YS02001770           JUNCTION     1.67     1.93     8.42     0  03:50        1.92
  YS02001774           JUNCTION     1.74     1.98     8.41     0  03:50        1.97
  YS02001779           JUNCTION     1.48     1.68     8.37     0  02:36        1.68
  YS02001882           JUNCTION     0.57     1.62     8.33     0  03:00        1.61
  YS02001884           JUNCTION     0.66     1.72     8.34     0  03:00        1.72
  YS02001759           JUNCTION     1.79     2.08     8.44     0  03:00        2.07
  YS02001887           JUNCTION     0.74     1.80     8.34     0  03:00        1.79
  YS02001890           JUNCTION     0.77     1.81     8.32     0  02:51        1.81
  YS02001898           JUNCTION     0.54     1.56     8.29     0  03:00        1.55
  YS02001901           JUNCTION     0.65     1.67     8.28     0  02:57        1.67
  YS02001904           JUNCTION     0.63     1.64     8.27     0  02:59        1.63
  YS02001907           JUNCTION     0.96     1.96     8.25     0  02:44        1.96
  YS02001910           JUNCTION     0.75     1.77     8.28     0  02:46        1.77
  YS02001915           JUNCTION     0.55     1.58     8.30     0  02:46        1.56
  YS02001918           JUNCTION     0.29     1.25     8.32     0  02:46        1.25
  YS02001619           JUNCTION     1.27     1.61     8.54     0  02:27        1.47
  YS02001629           JUNCTION     1.62     1.85     8.40     0  02:27        1.84
  YS02001641           JUNCTION     1.72     1.93     8.37     0  02:36        1.93
  YS02001644           JUNCTION     1.72     1.92     8.35     0  02:34        1.92
  YS02001652           JUNCTION     1.57     2.16     8.76     0  02:19        1.87
  YS02001655           JUNCTION     1.34     2.20     9.05     0  02:18        1.67
  YS02001920           JUNCTION     0.39     1.33     8.33     0  02:46        1.31
  YS02001923           JUNCTION     0.23     1.08     8.34     0  02:46        1.07
  YS02001926           JUNCTION     0.28     0.91     8.35     0  02:46        0.89
  YS02001929           JUNCTION     0.16     0.68     8.37     0  02:45        0.67
  YS02001658           JUNCTION     1.07     1.80     8.94     0  02:52        1.48
  YS02001661           JUNCTION     0.84     1.75     9.15     0  04:11        1.56
  YS02001664           JUNCTION     0.38     0.57     8.50     0  04:17        0.56
  YS02001622           JUNCTION     1.29     1.62     8.52     0  02:27        1.50
  YS02001633           JUNCTION     1.71     1.94     8.40     0  02:56        1.94
  YS02001649           JUNCTION     1.77     2.05     8.44     0  02:38        2.04
  YS02001757           JUNCTION     1.89     2.18     8.44     0  03:00        2.17
  YS02001895           JUNCTION     0.53     1.56     8.31     0  02:58        1.55
  YS02001625           JUNCTION     1.57     1.78     8.38     0  02:27        1.78
  YS02163301           JUNCTION     1.65     1.91     8.42     0  02:28        1.88
  YS02163601           JUNCTION     1.76     1.99     8.39     0  02:36        1.98
  YS02164001           JUNCTION     1.70     1.92     8.38     0  02:35        1.92
  YS02001647           JUNCTION     1.55     1.80     8.41     0  02:39        1.79
  YSB1154              JUNCTION     0.26     0.47     9.52     0  03:01        0.47
  YSB6556              JUNCTION     0.16     0.35     9.52     0  03:01        0.35
  YSB1174              JUNCTION     0.21     0.41     9.52     0  03:01        0.41
  YSB1171              JUNCTION     0.42     0.62     9.52     0  03:01        0.62
  YS02006553           JUNCTION     0.96     1.96     8.25     0  03:00        1.96
  YS02006561           JUNCTION     0.32     1.08     7.74     0  02:47        1.07
  YS02006556           JUNCTION     0.93     1.92     8.23     0  03:00        1.92
  YS02006558           JUNCTION     0.97     1.96     8.23     0  02:58        1.95
  YS02001783           JUNCTION     0.54     1.47     7.61     0  02:45        1.46
  YS02001784           JUNCTION     0.55     1.65     7.72     0  02:34        1.40
  YS02001786           JUNCTION     0.49     1.74     7.77     0  02:34        1.25
  YS02001788           JUNCTION     0.42     1.48     7.46     0  02:34        1.12
  YS02001790           JUNCTION     0.53     1.96     7.60     0  04:31        1.29
  YS02001791           JUNCTION     0.49     2.25     7.72     0  04:30        1.27
  YS02001793           JUNCTION     0.68     2.76     7.60     0  04:28        1.80
  WSC                  OUTFALL      0.33     0.43     1.10     0  03:09        0.43
  JK-storage           STORAGE      2.97     5.80     6.60     0  02:01        5.80
  CC-storage           STORAGE      1.15     1.44     8.44     0  03:07        1.44
  XR-storage           STORAGE      6.62     7.72     5.72     0  02:50        7.72
  
  
  *******************
  Node Inflow Summary
  *******************
  
  -------------------------------------------------------------------------------------------------
                                  Maximum  Maximum                  Lateral       Total        Flow
                                  Lateral    Total  Time of Max      Inflow      Inflow     Balance
                                   Inflow   Inflow   Occurrence      Volume      Volume       Error
  Node                 Type           LPS      LPS  days hr:min    10^6 ltr    10^6 ltr     Percent
  -------------------------------------------------------------------------------------------------
  WS02001211           JUNCTION      7.35   389.62     0  03:17       0.207        9.97       0.395
  WS02001212           JUNCTION      0.00   391.74     0  03:18           0        9.93       0.222
  WS02001213           JUNCTION      0.00   393.63     0  03:17           0        9.91       0.278
  WS02003069           JUNCTION      0.32  1108.70     0  03:07     0.00902        17.7       0.151
  WS02003072           JUNCTION      0.00  1108.75     0  03:08           0        17.7       0.190
  WS02003073           JUNCTION      1.82  1110.69     0  03:08      0.0514        17.7       0.207
  WS02003060           JUNCTION     16.53  1108.38     0  03:07       0.466        17.8       0.144
  WS02003066           JUNCTION      0.00   711.37     0  03:06           0        7.45       0.037
  WS02003059           JUNCTION      0.00   396.18     0  03:17           0        9.88       0.376
  WS02003067           JUNCTION      0.00   710.90     0  03:05           0        7.45       0.085
  WS02004401           JUNCTION      0.00   714.59     0  03:04           0        7.61       0.194
  WS02004402           JUNCTION      0.00   714.66     0  03:04           0         7.6       0.190
  WS02004403           JUNCTION      0.00   714.65     0  03:04           0        7.58       0.179
  WS02004404           JUNCTION      0.16   714.78     0  03:04     0.00457        7.57       0.141
  WS02004406           JUNCTION      0.00   714.86     0  03:04           0        7.55       0.346
  WS02004409           JUNCTION      0.00   714.71     0  03:04           0        7.52       0.111
  WS02004410           JUNCTION      0.00   713.25     0  03:04           0        7.51       0.138
  WS02004411           JUNCTION      0.00   711.81     0  03:05           0         7.5       0.150
  WS02004412           JUNCTION      0.00   711.26     0  03:05           0        7.49       0.175
  WS02004413           JUNCTION      0.00   710.81     0  03:05           0        7.47       0.281
  WS02004405           JUNCTION      0.04   714.85     0  03:04     0.00107        7.56       0.215
  WS02006109           JUNCTION      1.23   701.70     0  03:03      0.0347        7.61       0.174
  WS02006110           JUNCTION      0.00   701.81     0  03:03           0         7.6       0.157
  WS02006111           JUNCTION      0.00   723.38     0  03:01           0        7.58       0.022
  WS02006112           JUNCTION     16.72   717.90     0  03:03      0.0747        7.65       0.262
  WS02006113           JUNCTION      0.00   701.67     0  03:03           0        7.59       0.058
  WS02006115           JUNCTION      0.00   717.97     0  03:03           0        7.63       0.154
  WS02006116           JUNCTION      0.00   715.44     0  03:03           0        7.62       0.161
  WS02006230           JUNCTION     10.28   499.22     0  06:22        0.29        5.44       0.176
  WS02006231           JUNCTION      0.00   482.21     0  06:23           0        5.15      -0.013
  WS02006232           JUNCTION      0.00   482.24     0  06:23           0        5.15       0.166
  WS02006234           JUNCTION      0.00   482.38     0  06:23           0        5.15      -0.035
  WS02006235           JUNCTION      0.00   482.64     0  06:23           0        5.21       0.134
  WS02006238           JUNCTION      0.00   271.73     0  04:53           0        1.95      -0.079
  WS02006240           JUNCTION      0.00   271.41     0  04:53           0        1.89       0.105
  WS02006242           JUNCTION      0.00   271.40     0  04:53           0        1.87       0.225
  WS02006243           JUNCTION      0.00   294.46     0  06:20           0        1.86       0.079
  WS02006245           JUNCTION      0.00   317.81     0  04:50           0        1.86       0.324
  WS02006247           JUNCTION      0.00   341.47     0  04:50           0        1.86       0.084
  WS02006248           JUNCTION      0.00   358.82     0  04:50           0        1.86      -0.172
  WS02006249           JUNCTION      0.00   372.89     0  04:50           0        1.86       0.260
  WS02006239           JUNCTION      0.00   271.63     0  04:53           0        1.91      -0.239
  WS02006251           JUNCTION      0.08   399.91     0  04:50     0.00217         1.9      -0.027
  WS02006252           JUNCTION      0.00   399.92     0  06:20           0        1.44       0.007
  WS02006253           JUNCTION      1.99   100.10     0  04:51     0.00928       0.452      -0.043
  WS02006256           JUNCTION      0.00   983.00     0  00:00           0        9.59      -0.009
  WS02004138           JUNCTION      0.00   380.00     0  00:00           0         9.8       0.062
  WS02004139           JUNCTION      0.32   396.51     0  00:00     0.00905        9.81       0.454
  WS02004407           JUNCTION      0.00   714.83     0  03:04           0        7.52       0.052
  WS02006228           JUNCTION      0.00   700.46     0  03:03           0        7.59       0.133
  WS02006229           JUNCTION      0.00   699.37     0  03:02           0         7.6       0.129
  WS02006280           JUNCTION      0.00   413.59     0  03:02           0        2.17       0.003
  WS02006284           JUNCTION      0.10   413.54     0  03:02      0.0027        2.17       0.040
  WS02006287           JUNCTION      0.00   413.20     0  03:01           0        2.17       0.034
  WSF200               JUNCTION      0.00   711.53     0  03:06           0        7.44       0.030
  HS02004901           JUNCTION     20.36    20.36     0  03:01      0.0901      0.0904       1.991
  HS02004881           JUNCTION      7.95    84.18     0  03:01      0.0378        0.41       0.095
  HS02004876           JUNCTION     14.96    76.75     0  03:01      0.0728       0.373       0.148
  HS02004870           JUNCTION     14.89    62.15     0  03:01      0.0716         0.3       0.038
  HS02004862           JUNCTION     15.28    47.68     0  03:01      0.0788       0.229       0.077
  HS02004856           JUNCTION     11.18    32.72     0  03:01      0.0539       0.152       0.963
  HS02004852           JUNCTION      0.00    21.94     0  03:01           0      0.0979       0.059
  HS02004848           JUNCTION     34.61    34.61     0  03:01       0.174       0.174       0.029
  HS02004842           JUNCTION      0.00    12.41     0  03:01           0      0.0895      16.998
  HS02004837           JUNCTION     31.84    43.95     0  03:01       0.303        0.38       0.215
  HS02004830           JUNCTION      0.15    43.85     0  03:01     0.00423        0.37       0.334
  HS02004824           JUNCTION     42.39    85.90     0  03:01       0.225       0.594       0.091
  HS02004817           JUNCTION      0.60    86.28     0  03:01      0.0169        0.61       2.809
  HS02004807           JUNCTION     27.35   112.31     0  03:01       0.131       0.725       0.605
  HS02004802           JUNCTION      0.00   111.36     0  03:01           0       0.723       0.549
  HS02004799           JUNCTION     22.08   258.92     0  03:01       0.107        1.24       0.223
  HS02004792           JUNCTION    102.90   238.00     0  03:01        0.47        1.14       0.037
  HS02004788           JUNCTION     34.16   135.93     0  03:01       0.199       0.669       0.059
  HS02004785           JUNCTION      0.15   103.51     0  03:01     0.00423       0.471       0.106
  HS02004777           JUNCTION      0.03   104.15     0  03:01    0.000846       0.472       1.115
  HS02004770           JUNCTION     85.35   105.10     0  03:01       0.385       0.473       0.660
  HS02004480           JUNCTION      0.00   302.42     0  03:01           0        1.46       0.076
  HS02004479           JUNCTION      0.00    44.89     0  03:02           0       0.232       0.317
  HS02004478           JUNCTION      0.00   413.06     0  03:01           0        2.17       0.013
  YS02001745           JUNCTION    336.84   385.40     0  02:26        2.69         2.7       0.424
  YS02001748           JUNCTION      0.04   543.88     0  02:26     0.00127        2.69       0.769
  YS02001751           JUNCTION      0.01   359.09     0  02:17     0.00031        2.66       0.901
  YS02001754           JUNCTION      0.26   340.53     0  03:01     0.00733        2.64       0.944
  YS02001762           JUNCTION      0.00   290.72     0  02:38           0        1.96       1.087
  YS02001765           JUNCTION      0.00   291.61     0  02:38           0        1.96       1.248
  YS02001767           JUNCTION      0.54   292.46     0  02:38      0.0151        1.99       1.818
  YS02001770           JUNCTION    415.94   621.77     0  03:08        3.01        3.61       0.871
  YS02001774           JUNCTION      0.00   622.00     0  03:08           0         2.2       1.142
  YS02001779           JUNCTION      0.01   622.18     0  03:08    0.000141        2.17       0.716
  YS02001882           JUNCTION      0.00    32.71     0  02:35           0      0.0167      15.544
  YS02001884           JUNCTION      0.00    65.68     0  02:35           0      0.0537      12.991
  YS02001759           JUNCTION    399.49   573.13     0  02:38        2.78        4.11       0.560
  YS02001887           JUNCTION    494.68   494.82     0  03:01        3.19        3.22       0.267
  YS02001890           JUNCTION      0.00   494.70     0  03:01           0        3.18       0.295
  YS02001898           JUNCTION      0.00   495.22     0  03:01           0        3.16       0.099
  YS02001901           JUNCTION      0.00   495.45     0  03:01           0        3.16       0.221
  YS02001904           JUNCTION      0.00   495.42     0  03:01           0        3.16       0.204
  YS02001907           JUNCTION      0.00   941.81     0  03:01           0        7.02       0.347
  YS02001910           JUNCTION      0.00   449.39     0  03:00           0        3.87       0.310
  YS02001915           JUNCTION    296.36   449.16     0  03:00        2.25         3.9       0.156
  YS02001918           JUNCTION      0.00   207.36     0  03:30           0        1.65       0.081
  YS02001619           JUNCTION    290.53   290.53     0  03:01        2.24        2.24       0.545
  YS02001629           JUNCTION      0.00   213.09     0  02:17           0        1.69       1.719
  YS02001641           JUNCTION      0.00   395.65     0  02:35           0        4.25       0.497
  YS02001644           JUNCTION    321.01  1398.42     0  03:01        2.59        11.1       0.243
  YS02001652           JUNCTION      0.00   373.03     0  03:01           0        2.34       1.008
  YS02001655           JUNCTION      0.15   395.91     0  02:18     0.00434        2.37       1.019
  YS02001920           JUNCTION      2.87   202.20     0  02:46      0.0809        1.64       0.167
  YS02001923           JUNCTION      0.04   222.27     0  02:46     0.00106        1.56       0.051
  YS02001926           JUNCTION      0.05   169.41     0  02:46     0.00147        1.56       0.210
  YS02001929           JUNCTION    151.13   151.13     0  03:01        1.56        1.56       0.038
  YS02001658           JUNCTION      0.00   601.90     0  02:23           0        2.41       0.918
  YS02001661           JUNCTION      0.00   636.54     0  02:39           0        2.74      -0.277
  YS02001664           JUNCTION    361.21   361.21     0  03:01        2.38        2.73       0.249
  YS02001622           JUNCTION      0.00   290.95     0  03:01           0        2.22       1.440
  YS02001633           JUNCTION    326.74   397.63     0  02:35        2.66        4.31       0.749
  YS02001649           JUNCTION      0.00   826.95     0  02:35           0        6.33       0.585
  YS02001757           JUNCTION      0.00  1577.41     0  02:35           0         8.3       1.122
  YS02001895           JUNCTION      0.00   495.03     0  03:01           0        3.17       0.162
  YS02001625           JUNCTION      0.00   290.70     0  03:01           0        2.19       1.809
  YS02163301           JUNCTION      0.00   199.18     0  02:20           0        1.67       1.469
  YS02163601           JUNCTION      0.11   397.17     0  02:35      0.0031        4.27       0.701
  YS02164001           JUNCTION      0.00   397.15     0  02:35           0        4.25       0.474
  YS02001647           JUNCTION      0.00   734.66     0  03:09           0        5.62       0.501
  YSB1154              JUNCTION     26.18    26.18     0  03:01       0.129        0.13       1.131
  YSB6556              JUNCTION      0.00    25.82     0  03:01           0        0.13       0.969
  YSB1174              JUNCTION     20.52    20.52     0  03:01      0.0948      0.0952       1.369
  YSB1171              JUNCTION      0.00    45.30     0  03:01           0       0.231       2.822
  YS02006553           JUNCTION      0.00   704.27     0  03:31           0        6.56       0.241
  YS02006561           JUNCTION      0.00   982.44     0  03:00           0        9.44       0.008
  YS02006556           JUNCTION      0.00   704.42     0  03:31           0        6.57       0.178
  YS02006558           JUNCTION    433.40   983.21     0  02:59        2.93        9.47       0.052
  YS02001783           JUNCTION      0.00   982.39     0  02:59           0        9.44       0.023
  YS02001784           JUNCTION      1.06   983.36     0  03:00      0.0299        9.47       0.038
  YS02001786           JUNCTION      0.06   983.35     0  03:01     0.00159        9.47       0.036
  YS02001788           JUNCTION      0.07   983.47     0  03:00       0.002        9.47       0.022
  YS02001790           JUNCTION      0.15   983.56     0  03:00     0.00437        9.47       0.011
  YS02001791           JUNCTION      0.00   983.73     0  03:01           0        9.47       0.016
  YS02001793           JUNCTION      0.00   983.94     0  02:59           0        9.47       0.039
  WSC                  OUTFALL       0.00  1110.90     0  03:09           0        17.7       0.000
  JK-storage           STORAGE       0.00   984.35     0  02:59           0        9.62     -10.314
  CC-storage           STORAGE       0.00  1577.15     0  02:35           0        5.51       1.198
  XR-storage           STORAGE     844.76   844.76     0  03:01        11.8        12.4      -0.001
  
  
  **********************
  Node Surcharge Summary
  **********************
  
  Surcharging occurs when water rises above the top of the highest conduit.
  ---------------------------------------------------------------------
                                               Max. Height   Min. Depth
                                   Hours       Above Crown    Below Rim
  Node                 Type      Surcharged         Meters       Meters
  ---------------------------------------------------------------------
  WS02004401           JUNCTION        0.11          0.028        1.632
  WS02004402           JUNCTION        0.16          0.038        1.702
  WS02004403           JUNCTION        0.16          0.036        1.994
  WS02004404           JUNCTION        0.38          0.095        2.685
  WS02004406           JUNCTION        0.30          0.059        2.391
  WS02004405           JUNCTION        0.34          0.080        2.720
  WS02006109           JUNCTION        2.28          0.320        1.500
  WS02006110           JUNCTION        1.04          0.122        1.728
  WS02006112           JUNCTION        1.30          0.261        1.419
  WS02006230           JUNCTION        0.35          0.159        1.411
  WS02006231           JUNCTION        0.80          0.193        1.337
  WS02006232           JUNCTION        1.98          0.319        1.161
  WS02006234           JUNCTION        1.17          0.327        0.913
  WS02006235           JUNCTION        1.42          0.428        0.862
  WS02006238           JUNCTION        1.56          0.457        0.973
  WS02006240           JUNCTION        0.92          0.470        0.920
  WS02006242           JUNCTION        1.03          0.590        0.230
  WS02006243           JUNCTION        0.45          0.535        0.235
  WS02006245           JUNCTION        0.32          0.515        0.335
  WS02006247           JUNCTION        0.32          0.506        0.254
  WS02006248           JUNCTION        0.10          0.380        0.000
  WS02006249           JUNCTION        0.12          0.390        0.000
  WS02006239           JUNCTION        1.11          0.436        0.854
  WS02006252           JUNCTION        0.25          0.190        0.910
  WS02006256           JUNCTION        6.71          2.050        0.000
  WS02006228           JUNCTION        2.23          0.396        1.804
  YS02001748           JUNCTION        5.31          0.412        0.778
  YS02001751           JUNCTION        5.49          0.568        0.632
  YS02001754           JUNCTION        5.70          0.784        0.366
  YS02001762           JUNCTION        5.87          1.043        0.107
  YS02001765           JUNCTION        5.84          0.994        0.106
  YS02001767           JUNCTION        5.81          0.951        0.079
  YS02001770           JUNCTION        5.80          0.899        0.021
  YS02001774           JUNCTION        5.86          0.984        0.066
  YS02001779           JUNCTION        5.67          0.680        0.000
  YS02001882           JUNCTION        0.91          0.618        0.212
  YS02001884           JUNCTION        0.93          0.662        0.208
  YS02001759           JUNCTION        5.89          1.077        0.133
  YS02001887           JUNCTION        1.00          0.747        0.203
  YS02001890           JUNCTION        1.02          0.760        0.000
  YS02001898           JUNCTION        0.87          0.526        0.214
  YS02001901           JUNCTION        0.97          0.674        0.196
  YS02001904           JUNCTION        0.95          0.636        0.214
  YS02001907           JUNCTION        1.77          0.950        0.000
  YS02001910           JUNCTION        1.07          0.774        0.326
  YS02001915           JUNCTION        0.89          0.583        0.417
  YS02001918           JUNCTION        0.71          0.252        0.558
  YS02001619           JUNCTION        5.48          0.610        0.000
  YS02001629           JUNCTION        5.48          0.470        0.000
  YS02001641           JUNCTION        5.85          0.935        0.165
  YS02001644           JUNCTION        5.85          0.920        0.000
  YS02001652           JUNCTION        5.73          1.130        0.000
  YS02001655           JUNCTION        5.51          1.200        0.000
  YS02001920           JUNCTION        0.74          0.326        0.814
  YS02001658           JUNCTION        5.34          0.801        0.499
  YS02001661           JUNCTION        0.17          0.679        0.711
  YS02001622           JUNCTION        5.51          0.620        0.000
  YS02001633           JUNCTION        5.83          0.924        0.136
  YS02001649           JUNCTION        5.87          1.050        0.000
  YS02001757           JUNCTION        5.98          1.175        0.035
  YS02001895           JUNCTION        0.88          0.564        0.186
  YS02001625           JUNCTION        5.76          0.780        0.000
  YS02163301           JUNCTION        5.81          0.905        0.125
  YS02163601           JUNCTION        5.87          0.989        0.091
  YS02164001           JUNCTION        5.84          0.918        0.182
  YS02001647           JUNCTION        5.75          0.802        0.098
  YS02006553           JUNCTION        1.88          0.964        0.226
  YS02006561           JUNCTION        0.77          0.277        0.873
  YS02006556           JUNCTION        1.31          0.882        0.468
  YS02006558           JUNCTION        1.26          0.860        0.540
  YS02001783           JUNCTION        1.06          0.671        0.929
  YS02001784           JUNCTION        1.04          0.849        0.641
  YS02001786           JUNCTION        0.98          0.936        0.494
  YS02001788           JUNCTION        0.93          0.683        0.797
  YS02001790           JUNCTION        1.68          1.157        0.000
  YS02001791           JUNCTION        1.79          1.447        0.473
  YS02001793           JUNCTION        2.08          1.763        0.837
  
  
  *********************
  Node Flooding Summary
  *********************
  
  Flooding refers to all water that overflows a node, whether it ponds or not.
  --------------------------------------------------------------------------
                                                             Total   Maximum
                                 Maximum   Time of Max       Flood    Ponded
                        Hours       Rate    Occurrence      Volume     Depth
  Node                 Flooded       LPS   days hr:min    10^6 ltr    Meters
  --------------------------------------------------------------------------
  WS02006248              0.01     19.86      0  04:52       0.000     0.000
  WS02006249              0.01     24.86      0  06:22       0.000     0.000
  WS02006256              3.69    978.40      0  00:00       6.286     0.000
  YS02001779              3.02    622.17      0  03:08       2.152     0.000
  YS02001890              0.01      1.00      0  02:59       0.000     0.000
  YS02001907              0.58    392.64      0  03:01       0.443     0.000
  YS02001619              0.01     13.96      0  02:27       0.000     0.000
  YS02001629              0.01     29.40      0  02:27       0.000     0.000
  YS02001644              5.15   1398.36      0  03:01       9.701     0.000
  YS02001652              0.01     27.71      0  02:20       0.000     0.000
  YS02001655              0.01    303.52      0  02:19       0.001     0.000
  YS02001622              0.01     15.88      0  02:27       0.000     0.000
  YS02001649              0.02     20.96      0  02:52       0.000     0.000
  YS02001625              1.22    236.33      0  03:01       0.466     0.000
  YS02001790              0.01    193.69      0  04:31       0.000     0.000
  JK-storage              0.72    819.41      0  02:40       0.900     0.000
  XR-storage              3.14    464.72      0  03:01       1.990     0.000
  
  
  **********************
  Storage Volume Summary
  **********************
  
  --------------------------------------------------------------------------------------------------
                         Average     Avg  Evap Exfil       Maximum     Max    Time of Max    Maximum
                          Volume    Pcnt  Pcnt  Pcnt        Volume    Pcnt     Occurrence    Outflow
  Storage Unit           1000 m3    Full  Loss  Loss       1000 m3    Full    days hr:min        LPS
  --------------------------------------------------------------------------------------------------
  JK-storage               0.149      51     0     0         0.291     100       0  02:01     983.00
  CC-storage               3.212      20     0     0         4.000      25       0  03:07     399.92
  XR-storage               0.795      86     0     0         0.926     100       0  02:50     380.00
  
  
  ***********************
  Outfall Loading Summary
  ***********************
  
  ---------------------------------------------------------------------------------------------------------------------------------
                         Flow       Avg       Max       Total         Total         Total         Total         Total         Total
                         Freq      Flow      Flow      Volume           COD            SS            TN            TP         NH4-N
  Outfall Node           Pcnt       LPS       LPS    10^6 ltr            kg            kg            kg            kg            kg
  ---------------------------------------------------------------------------------------------------------------------------------
  WSC                   99.98    692.22   1110.90      17.689      2161.534      3681.541       146.622        17.431        89.187
  ---------------------------------------------------------------------------------------------------------------------------------
  System                99.98    692.22   1110.90      17.689      2161.534      3681.541       146.622        17.431        89.187
  
  
  ********************
  Link Flow Summary
  ********************
  
  -----------------------------------------------------------------------------
                                 Maximum  Time of Max   Maximum    Max/    Max/
                                  |Flow|   Occurrence   |Veloc|    Full    Full
  Link                 Type          LPS  days hr:min     m/sec    Flow   Depth
  -----------------------------------------------------------------------------
  WS02003066WSF200     CONDUIT    711.53     0  03:06      2.87    0.12    0.27
  WS02006287WS02006284 CONDUIT    413.44     0  03:02      2.04    0.19    0.30
  WS02006284WS02006280 CONDUIT    413.59     0  03:02      2.28    0.17    0.28
  WS02006280WS02006229 CONDUIT    413.63     0  03:02      3.68    0.09    0.20
  WS02006229WS02006228 CONDUIT    700.46     0  03:03      1.39    2.32    1.00
  WS02006256WS02006235 CONDUIT    288.60     0  00:00      4.23    3.05    1.00
  WS02006253WS02006251 CONDUIT     98.19     0  04:51      0.60    0.29    1.00
  WS02006252WS02006251 CONDUIT    399.83     0  04:50      3.18    1.47    1.00
  WS02006251WS02006249 CONDUIT    372.89     0  04:50      1.10    1.08    1.00
  WS02006249WS02006248 CONDUIT    358.82     0  04:50      1.12    1.97    1.00
  WS02006248WS02006247 CONDUIT    341.47     0  04:50      1.06    0.74    1.00
  WS02006247WS02006245 CONDUIT    317.81     0  04:50      0.97    2.52    1.00
  WS02006245WS02006243 CONDUIT    294.46     0  06:20      1.05    0.87    1.00
  WS02006243WS02006242 CONDUIT    271.40     0  04:53      0.92    0.58    1.00
  WS02006242WS02006240 CONDUIT    271.41     0  04:53      0.90    1.08    1.00
  WS02006240WS02006239 CONDUIT    271.63     0  04:53      0.94    0.85    1.00
  WS02006239WS02006238 CONDUIT    271.73     0  04:53      0.88    0.87    1.00
  WS02006238WS02006235 CONDUIT    272.06     0  04:53      1.46    0.61    1.00
  WS02006235WS02006234 CONDUIT    482.38     0  06:23      1.25    5.09    1.00
  WS02006234WS02006232 CONDUIT    482.24     0  06:23      1.39    0.98    1.00
  WS02006232WS02006231 CONDUIT    482.21     0  06:23      1.26    1.01    1.00
  WS02006231WS02006230 CONDUIT    488.94     0  06:22      1.36    7.42    1.00
  WS02006230WS02006229 CONDUIT    491.90     0  06:24      1.28   10.95    1.00
  WS02006228WS02006109 CONDUIT    700.47     0  03:03      1.39    3.06    1.00
  WS02006116WS02004401 CONDUIT    714.59     0  03:04      0.91    0.98    1.00
  WS02006115WS02006116 CONDUIT    715.44     0  03:03      0.92    0.92    0.96
  WS02006113WS02006111 CONDUIT    723.38     0  03:01      2.58    0.87    0.60
  WS02006112WS02006115 CONDUIT    717.97     0  03:03      0.92    0.42    0.97
  WS02006111WS02006112 CONDUIT    705.21     0  03:03      1.70    0.34    0.77
  WS02006110WS02006113 CONDUIT    701.67     0  03:03      1.59    0.64    0.83
  WS02006109WS02006110 CONDUIT    701.81     0  03:03      1.40    1.35    1.00
  WS02004411WS02004412 CONDUIT    711.26     0  03:05      1.07    1.01    0.79
  WS02004401WS02004402 CONDUIT    714.66     0  03:04      0.91    0.86    1.00
  WS02004413WS02003067 CONDUIT    710.90     0  03:05      1.30    0.30    0.66
  WS02004412WS02004413 CONDUIT    710.81     0  03:05      0.99    0.48    0.86
  WS02004410WS02004411 CONDUIT    711.81     0  03:05      1.07    0.97    0.79
  WS02004409WS02004410 CONDUIT    713.25     0  03:04      1.07    0.92    0.79
  WS02004407WS02004409 CONDUIT    714.71     0  03:04      1.57    0.25    0.56
  WS02004406WS02004407 CONDUIT    714.83     0  03:04      1.27    0.32    0.67
  WS02004405WS02004406 CONDUIT    714.86     0  03:04      0.91    1.41    1.00
  WS02004404WS02004405 CONDUIT    714.81     0  03:04      0.91    7.00    1.00
  WS02004403WS02004404 CONDUIT    714.62     0  03:04      0.91    0.52    1.00
  WS02004402WS02004403 CONDUIT    714.65     0  03:04      0.91    1.03    1.00
  WS02004139WS02001211 CONDUIT    382.27     0  03:17      0.90    0.48    0.61
  WS02004138WS02004139 CONDUIT    396.19     0  00:00      3.65    0.08    0.45
  WS02003067WS02003066 CONDUIT    711.37     0  03:06      1.41    0.23    0.46
  WS02001213WS02003059 CONDUIT    396.18     0  03:17      0.88    0.65    0.81
  WS02001212WS02001213 CONDUIT    393.63     0  03:17      1.32    0.61    0.51
  WS02001211WS02001212 CONDUIT    391.74     0  03:18      0.78    0.30    0.67
  WS02003072WS02003073 CONDUIT   1108.87     0  03:08      1.83    2.39    0.53
  WS02003069WS02003072 CONDUIT   1108.75     0  03:08      1.71    0.53    0.56
  WS02003060WS02003069 CONDUIT   1108.38     0  03:07      1.94    0.43    0.50
  WS02003059WS02003060 CONDUIT    399.70     0  03:16      0.95    0.26    0.71
  HS02004901HS02004770 CONDUIT     20.51     0  03:01      0.07    0.08    0.42
  HS02004876HS02004881 CONDUIT     76.54     0  03:01      0.95    0.81    0.12
  HS02004870HS02004876 CONDUIT     61.89     0  03:01      0.65    0.04    0.14
  HS02004842HS02004848 CONDUIT     12.41     0  03:01      0.06    0.01    0.31
  HS02004837HS02004842 CONDUIT     12.97     0  03:02      0.42    0.01    0.32
  HS02004830HS02004837 CONDUIT     43.70     0  03:01      0.57    0.04    0.11
  HS02004824HS02004830 CONDUIT     43.66     0  03:01      0.59    0.06    0.11
  HS02004817HS02004824 CONDUIT     85.68     0  03:01      0.26    0.04    0.48
  HS02004770HS02004777 CONDUIT    104.12     0  03:01      0.35    0.19    0.43
  HS02004799HS02004480 CONDUIT    258.28     0  03:01      0.83    0.33    0.44
  HS02004792HS02004799 CONDUIT    237.02     0  03:01      0.95    0.15    0.36
  HS02004788HS02004792 CONDUIT    135.41     0  03:01      1.06    0.09    0.18
  HS02004785HS02004788 CONDUIT    103.21     0  03:02      0.71    0.78    0.21
  HS02004777HS02004785 CONDUIT    103.36     0  03:01      0.42    0.13    0.35
  HS02004480HS02004478 CONDUIT    302.27     0  03:01      1.26    1.27    0.34
  HS02004479HS02004480 CONDUIT     46.28     0  03:02      0.32    0.04    0.43
  HS02004862HS02004870 CONDUIT     47.43     0  03:01      0.66    0.05    0.10
  HS02004848HS02004852 CONDUIT     21.94     0  03:01      0.45    0.02    0.07
  HS02004856HS02004862 CONDUIT     32.47     0  03:01      0.48    0.03    0.10
  HS02004852HS02004856 CONDUIT     21.85     0  03:02      0.25    0.02    0.13
  HS02004802HS02004478 CONDUIT    111.51     0  03:02      0.45    0.10    0.36
  HS02004478WS02006287 CONDUIT    413.20     0  03:01      1.75    0.12    0.26
  HS02004817HS02004807 CONDUIT     86.13     0  03:01      0.19    0.05    0.63
  HS02004807HS02004802 CONDUIT    111.36     0  03:01      0.38    0.21    0.42
  YS02001759YS02001757 CONDUIT    572.41     0  02:38      0.73    0.41    1.00
  YS02001762YS02001759 CONDUIT    291.07     0  02:38      0.37    0.34    1.00
  YS02001765YS02001762 CONDUIT    290.72     0  02:38      0.37    0.27    1.00
  YS02001770YS02001767 CONDUIT    291.93     0  02:38      0.37    1.16    1.00
  YS02001774YS02001770 CONDUIT    622.00     0  03:08      0.79    0.40    1.00
  YS02001779YS02001774 CONDUIT    622.17     0  03:08      0.79    0.31    1.00
  YS02001649YS02001757 CONDUIT    827.24     0  02:35      1.05    0.50    1.00
  YS02001767YS02001765 CONDUIT    291.61     0  02:38      0.37    0.37    1.00
  YS02006561YS02001783 CONDUIT    982.39     0  02:59      2.15    0.51    1.00
  YS02001783YS02001784 CONDUIT    982.30     0  03:00      1.95    1.35    1.00
  YS02001784YS02001785 CONDUIT    983.30     0  03:01      1.96    2.29    1.00
  YS02001788YS02001790 CONDUIT    983.40     0  03:00      2.44    0.72    1.00
  YS02001790YS02001791 CONDUIT    983.73     0  03:01      2.91    1.07    1.00
  YS02001791YS02001793 CONDUIT    983.94     0  02:59      5.76    0.42    1.00
  YS02001910YS02001907 CONDUIT    449.16     0  03:00      0.57    0.25    1.00
  YS02001786YS02001788 CONDUIT    983.40     0  03:00      2.31    1.89    1.00
  YS02001915YS02001910 CONDUIT    449.39     0  03:00      0.59    0.22    1.00
  YS02001918YS02001915 CONDUIT    245.58     0  03:31      0.44    0.14    1.00
  YS02001923YS02001920 CONDUIT    199.33     0  02:46      0.72    0.09    1.00
  YS02001926YS02001923 CONDUIT    222.23     0  02:46      0.83    0.32    0.88
  YS02001929YS02001926 CONDUIT    169.36     0  02:46      0.89    0.08    0.78
  YS02001920YS02001918 CONDUIT    207.36     0  03:30      0.70    0.20    1.00
  YS02001629YS02163301 CONDUIT    199.18     0  02:20      0.25    0.25    1.00
  YS02001619YS02001622 CONDUIT    290.95     0  03:01      0.61    0.43    1.00
  YS02001622YS02001625 CONDUIT    290.70     0  03:01      0.37    0.16    1.00
  YS02001625YS02001629 CONDUIT    213.09     0  02:17      0.27    0.10    1.00
  YS02163301YS02001633 CONDUIT    200.45     0  02:27      0.26    0.19    1.00
  YS02163601YS02164001 CONDUIT    397.15     0  02:35      0.51    0.35    1.00
  YS02164001YS02001641 CONDUIT    395.65     0  02:35      0.50    0.54    1.00
  YS02001641YS02001644 CONDUIT    397.93     0  02:29      0.51    1.29    1.00
  YS02001647YS02001649 CONDUIT    734.66     0  03:09      0.94    0.39    1.00
  YS02006553YS02006556 CONDUIT    704.42     0  03:31      0.90    0.60    1.00
  YS02006556YS02006558 CONDUIT    704.46     0  03:31      0.90    0.56    1.00
  YSB6556YSB1171       CONDUIT     25.74     0  03:03      0.09    0.03    0.70
  YS02001907YS02006553 CONDUIT    704.27     0  03:31      0.78    0.83    1.00
  YS02006558YS02006561 CONDUIT    982.44     0  03:00      3.47    2.17    1.00
  YS02001633YS02163601 CONDUIT    397.06     0  02:35      0.51    0.42    1.00
  YS02001644YS02001647 CONDUIT    734.86     0  03:09      0.94    0.43    1.00
  YS02001745YS02001748 CONDUIT    543.84     0  02:26      1.47    0.21    0.97
  YS02001748YS02001751 CONDUIT    359.08     0  02:17      1.06    0.18    1.00
  YS02001751YS02001754 CONDUIT    340.27     0  03:01      0.92    0.16    1.00
  YS02001754YS02001757 CONDUIT    340.35     0  03:01      0.43    0.14    1.00
  YS02001882YS02001884 CONDUIT     32.71     0  02:35      0.13    0.04    1.00
  YS02001884YS02001887 CONDUIT     65.68     0  02:35      0.09    0.09    1.00
  YS02001890YS02001895 CONDUIT    495.03     0  03:01      0.63    0.23    1.00
  YS02001895YS02001898 CONDUIT    495.22     0  03:01      0.63    0.86    1.00
  YS02001898YS02001901 CONDUIT    495.45     0  03:01      0.63    0.32    1.00
  YS02001901YS02001904 CONDUIT    495.42     0  03:01      0.63    0.77    1.00
  YS02001904YS02001907 CONDUIT    495.66     0  03:01      0.63    0.17    1.00
  YS02001887YS02001890 CONDUIT    494.70     0  03:01      0.63    0.85    1.00
  YS02001652YS02001649 CONDUIT    373.79     0  03:01      0.63    0.19    1.00
  YS02001655YS02001652 CONDUIT    373.03     0  03:01      0.98    0.18    1.00
  YS02001658YS02001655 CONDUIT    395.76     0  02:18      1.22    0.17    1.00
  YS02001661YS02001658 CONDUIT    601.90     0  02:23      1.55    0.24    1.00
  YS02001664YS02001661 CONDUIT    636.54     0  02:39      1.43    0.20    0.77
  YSB1154YSB6556       CONDUIT     25.82     0  03:01      0.17    0.05    0.59
  YSB1174YSB1171       CONDUIT     20.15     0  03:01      0.07    0.03    0.70
  YSB1171HS02004479    CONDUIT     44.89     0  03:02      0.54    0.03    0.55
  HS02004881HS02006253 CONDUIT     84.15     0  03:01      2.17    0.02    0.35
  YS02001793JiankangQianchi CONDUIT    984.35     0  02:59     16.49    0.08    1.00
  YS02001757CaochengTiaoxuchi CONDUIT   1577.15     0  02:35      2.02    0.69    1.00
  WSF200WS02003060     CONDUIT    712.06     0  03:06      1.75    0.16    0.39
  1                    CONDUIT   1110.90     0  03:09      3.42    0.39    0.43
  CC-Pump-1            PUMP       200.00     0  03:20              1.00
  CC-Pump-2            PUMP       199.96     0  06:20              1.00
  JK-Pump-1            PUMP       300.00     0  00:00              1.00
  JK-Pump-2            PUMP       683.00     0  00:00              1.00
  XR-Pump-1            PUMP        95.00     0  00:00              1.00
  XR-Pump-2            PUMP        95.00     0  00:00              1.00
  XR-Pump-3            PUMP        95.00     0  00:00              1.00
  XR-Pump-4            PUMP        95.00     0  00:00              1.00
  
  
  ***************************
  Flow Classification Summary
  ***************************
  
  -------------------------------------------------------------------------------------
                      Adjusted    ---------- Fraction of Time in Flow Class ---------- 
                       /Actual         Up    Down  Sub   Sup   Up    Down  Norm  Inlet 
  Conduit               Length    Dry  Dry   Dry   Crit  Crit  Crit  Crit  Ltd   Ctrl  
  -------------------------------------------------------------------------------------
  WS02003066WSF200        1.00   0.01  0.06  0.00  0.00  0.92  0.00  0.00  0.58  0.00
  WS02006287WS02006284    1.00   0.03  0.02  0.00  0.60  0.36  0.00  0.00  0.62  0.00
  WS02006284WS02006280    1.00   0.04  0.00  0.00  0.00  0.00  0.00  0.96  0.00  0.00
  WS02006280WS02006229    1.00   0.04  0.00  0.00  0.00  0.00  0.00  0.96  0.00  0.00
  WS02006229WS02006228    1.00   0.00  0.00  0.00  1.00  0.00  0.00  0.00  0.00  0.00
  WS02006256WS02006235    1.00   0.00  0.00  0.00  1.00  0.00  0.00  0.00  0.00  0.00
  WS02006253WS02006251    1.00   0.02  0.02  0.00  0.96  0.00  0.01  0.00  0.00  0.00
  WS02006252WS02006251    1.00   0.25  0.04  0.00  0.00  0.00  0.72  0.00  0.00  0.00
  WS02006251WS02006249    1.00   0.00  0.00  0.00  1.00  0.00  0.00  0.00  0.35  0.00
  WS02006249WS02006248    1.00   0.00  0.01  0.00  0.85  0.00  0.14  0.00  0.00  0.00
  WS02006248WS02006247    1.00   0.01  0.00  0.00  0.98  0.00  0.00  0.02  0.19  0.00
  WS02006247WS02006245    1.00   0.01  0.00  0.00  0.95  0.00  0.00  0.04  0.00  0.00
  WS02006245WS02006243    1.00   0.00  0.00  0.00  0.93  0.00  0.00  0.07  0.02  0.00
  WS02006243WS02006242    1.00   0.00  0.00  0.00  0.99  0.00  0.00  0.00  0.30  0.00
  WS02006242WS02006240    1.00   0.00  0.00  0.00  0.98  0.00  0.02  0.00  0.00  0.00
  WS02006240WS02006239    1.00   0.00  0.00  0.00  0.92  0.00  0.00  0.08  0.03  0.00
  WS02006239WS02006238    1.00   0.00  0.00  0.00  1.00  0.00  0.00  0.00  0.13  0.00
  WS02006238WS02006235    1.00   0.00  0.00  0.00  1.00  0.00  0.00  0.00  0.00  0.00
  WS02006235WS02006234    1.00   0.00  0.00  0.00  0.94  0.00  0.06  0.00  0.00  0.00
  WS02006234WS02006232    1.00   0.00  0.00  0.00  1.00  0.00  0.00  0.00  0.10  0.00
  WS02006232WS02006231    1.00   0.00  0.00  0.00  1.00  0.00  0.00  0.00  0.00  0.00
  WS02006231WS02006230    1.00   0.00  0.00  0.00  0.53  0.00  0.46  0.00  0.00  0.00
  WS02006230WS02006229    1.00   0.00  0.00  0.00  1.00  0.00  0.00  0.00  0.01  0.00
  WS02006228WS02006109    1.00   0.00  0.00  0.00  1.00  0.00  0.00  0.00  0.00  0.00
  WS02006116WS02004401    1.00   0.01  0.00  0.00  0.99  0.00  0.00  0.00  0.01  0.00
  WS02006115WS02006116    1.00   0.01  0.00  0.00  0.97  0.00  0.00  0.02  0.01  0.00
  WS02006113WS02006111    1.00   0.01  0.00  0.00  0.00  0.99  0.00  0.00  0.21  0.00
  WS02006112WS02006115    1.00   0.01  0.00  0.00  0.99  0.00  0.00  0.00  0.00  0.00
  WS02006111WS02006112    1.00   0.01  0.00  0.00  0.99  0.00  0.00  0.00  0.94  0.00
  WS02006110WS02006113    1.00   0.00  0.00  0.00  0.99  0.00  0.00  0.00  0.00  0.00
  WS02006109WS02006110    1.00   0.00  0.00  0.00  0.99  0.00  0.00  0.00  0.00  0.00
  WS02004411WS02004412    1.00   0.06  0.00  0.00  0.94  0.00  0.00  0.00  0.00  0.00
  WS02004401WS02004402    1.00   0.01  0.00  0.00  0.99  0.00  0.00  0.00  0.01  0.00
  WS02004413WS02003067    1.00   0.06  0.01  0.00  0.00  0.00  0.93  0.00  0.00  0.00
  WS02004412WS02004413    1.00   0.06  0.00  0.00  0.94  0.00  0.00  0.00  0.00  0.00
  WS02004410WS02004411    1.00   0.06  0.00  0.00  0.94  0.00  0.00  0.00  0.00  0.00
  WS02004409WS02004410    1.00   0.06  0.00  0.00  0.94  0.00  0.00  0.00  0.00  0.00
  WS02004407WS02004409    1.00   0.06  0.00  0.00  0.94  0.01  0.00  0.00  0.81  0.00
  WS02004406WS02004407    1.00   0.00  0.06  0.00  0.94  0.00  0.00  0.00  0.00  0.00
  WS02004405WS02004406    1.00   0.00  0.00  0.00  1.00  0.00  0.00  0.00  0.02  0.00
  WS02004404WS02004405    1.00   0.00  0.00  0.00  1.00  0.00  0.00  0.00  0.00  0.00
  WS02004403WS02004404    1.00   0.00  0.01  0.00  0.99  0.00  0.00  0.00  0.02  0.00
  WS02004402WS02004403    1.00   0.01  0.00  0.00  0.99  0.00  0.00  0.00  0.00  0.00
  WS02004139WS02001211    1.00   0.00  0.00  0.00  1.00  0.00  0.00  0.00  0.00  0.00
  WS02004138WS02004139    1.00   0.00  0.00  0.00  1.00  0.00  0.00  0.00  1.00  0.00
  WS02003067WS02003066    1.00   0.07  0.00  0.00  0.92  0.00  0.00  0.00  0.00  0.00
  WS02001213WS02003059    1.00   0.00  0.00  0.00  1.00  0.00  0.00  0.00  0.00  0.00
  WS02001212WS02001213    1.00   0.00  0.00  0.00  0.90  0.00  0.10  0.00  0.00  0.00
  WS02001211WS02001212    1.00   0.00  0.00  0.00  1.00  0.00  0.00  0.00  0.00  0.00
  WS02003072WS02003073    1.00   0.00  0.00  0.00  0.00  0.00  0.00  1.00  0.00  0.00
  WS02003069WS02003072    1.00   0.00  0.00  0.00  1.00  0.00  0.00  0.00  0.10  0.00
  WS02003060WS02003069    1.00   0.00  0.00  0.00  0.99  0.01  0.00  0.00  0.07  0.00
  WS02003059WS02003060    1.00   0.00  0.00  0.00  1.00  0.00  0.00  0.00  0.00  0.00
  HS02004901HS02004770    1.00   0.04  0.00  0.00  0.96  0.00  0.00  0.00  0.00  0.00
  HS02004876HS02004881    1.00   0.01  0.00  0.00  0.92  0.07  0.00  0.00  0.00  0.00
  HS02004870HS02004876    1.00   0.00  0.00  0.00  0.99  0.00  0.00  0.00  0.95  0.00
  HS02004842HS02004848    1.00   0.00  0.04  0.00  0.96  0.00  0.00  0.00  0.55  0.00
  HS02004837HS02004842    1.00   0.00  0.00  0.00  1.00  0.00  0.00  0.00  0.11  0.00
  HS02004830HS02004837    1.00   0.00  0.00  0.00  1.00  0.00  0.00  0.00  0.99  0.00
  HS02004824HS02004830    1.00   0.00  0.00  0.00  1.00  0.00  0.00  0.00  0.00  0.00
  HS02004817HS02004824    1.00   0.00  0.00  0.00  1.00  0.00  0.00  0.00  1.00  0.00
  HS02004770HS02004777    1.00   0.00  0.04  0.00  0.96  0.00  0.00  0.00  0.02  0.00
  HS02004799HS02004480    1.00   0.00  0.01  0.00  0.95  0.00  0.03  0.00  0.00  0.00
  HS02004792HS02004799    1.00   0.00  0.00  0.00  1.00  0.00  0.00  0.00  0.98  0.00
  HS02004788HS02004792    1.00   0.00  0.00  0.00  1.00  0.00  0.00  0.00  0.98  0.00
  HS02004785HS02004788    1.00   0.00  0.00  0.00  1.00  0.00  0.00  0.00  0.00  0.00
  HS02004777HS02004785    1.00   0.00  0.00  0.00  1.00  0.00  0.00  0.00  0.12  0.00
  HS02004480HS02004478    1.00   0.04  0.00  0.00  0.65  0.00  0.00  0.31  0.00  0.00
  HS02004479HS02004480    1.00   0.01  0.00  0.00  0.99  0.00  0.00  0.00  0.11  0.00
  HS02004862HS02004870    1.00   0.00  0.00  0.00  1.00  0.00  0.00  0.00  0.03  0.00
  HS02004848HS02004852    1.00   0.04  0.00  0.00  0.96  0.00  0.00  0.00  0.62  0.00
  HS02004856HS02004862    1.00   0.00  0.05  0.00  0.95  0.00  0.00  0.00  0.83  0.00
  HS02004852HS02004856    1.00   0.04  0.00  0.00  0.96  0.00  0.00  0.00  0.85  0.00
  HS02004802HS02004478    1.00   0.04  0.00  0.00  0.96  0.00  0.00  0.00  0.02  0.00
  HS02004478WS02006287    1.00   0.05  0.00  0.00  0.74  0.21  0.00  0.00  0.64  0.00
  HS02004817HS02004807    1.00   0.00  0.04  0.00  0.96  0.00  0.00  0.00  0.01  0.00
  HS02004807HS02004802    1.00   0.04  0.00  0.00  0.96  0.00  0.00  0.00  0.00  0.00
  YS02001759YS02001757    1.00   0.00  0.00  0.00  1.00  0.00  0.00  0.00  0.16  0.00
  YS02001762YS02001759    1.00   0.00  0.00  0.00  1.00  0.00  0.00  0.00  0.03  0.00
  YS02001765YS02001762    1.00   0.00  0.00  0.00  1.00  0.00  0.00  0.00  0.13  0.00
  YS02001770YS02001767    1.00   0.00  0.00  0.00  1.00  0.00  0.00  0.00  0.00  0.00
  YS02001774YS02001770    1.00   0.00  0.04  0.00  0.96  0.00  0.00  0.00  0.02  0.00
  YS02001779YS02001774    1.00   0.00  0.00  0.00  1.00  0.00  0.00  0.00  0.18  0.00
  YS02001649YS02001757    1.00   0.00  0.00  0.00  1.00  0.00  0.00  0.00  0.16  0.00
  YS02001767YS02001765    1.00   0.00  0.00  0.00  1.00  0.00  0.00  0.00  0.00  0.00
  YS02006561YS02001783    1.00   0.05  0.00  0.00  0.33  0.61  0.00  0.00  0.49  0.00
  YS02001783YS02001784    1.00   0.00  0.05  0.00  0.95  0.00  0.00  0.00  0.01  0.00
  YS02001784YS02001785    1.00   0.00  0.00  0.00  1.00  0.00  0.00  0.00  0.17  0.00
  YS02001788YS02001790    1.00   0.00  0.00  0.00  0.40  0.60  0.00  0.00  0.40  0.00
  YS02001790YS02001791    1.00   0.00  0.00  0.00  0.36  0.64  0.00  0.00  0.50  0.00
  YS02001791YS02001793    1.00   0.00  0.00  0.00  0.40  0.60  0.00  0.00  0.04  0.00
  YS02001910YS02001907    1.00   0.00  0.00  0.00  0.99  0.00  0.00  0.01  0.12  0.00
  YS02001786YS02001788    1.00   0.00  0.00  0.00  0.37  0.63  0.00  0.00  0.00  0.00
  YS02001915YS02001910    1.00   0.00  0.00  0.00  0.99  0.01  0.00  0.00  0.15  0.00
  YS02001918YS02001915    1.00   0.00  0.00  0.00  0.99  0.00  0.00  0.00  0.55  0.00
  YS02001923YS02001920    1.00   0.00  0.00  0.00  1.00  0.00  0.00  0.00  0.84  0.00
  YS02001926YS02001923    1.00   0.00  0.02  0.00  0.16  0.00  0.82  0.00  0.00  0.00
  YS02001929YS02001926    1.00   0.00  0.04  0.00  0.96  0.00  0.00  0.00  0.76  0.00
  YS02001920YS02001918    1.00   0.00  0.00  0.00  1.00  0.00  0.00  0.00  0.00  0.00
  YS02001629YS02163301    1.00   0.04  0.00  0.00  0.95  0.00  0.00  0.00  0.00  0.00
  YS02001619YS02001622    1.00   0.04  0.00  0.00  0.96  0.00  0.00  0.00  0.00  0.00
  YS02001622YS02001625    1.00   0.04  0.00  0.00  0.96  0.00  0.00  0.00  0.04  0.00
  YS02001625YS02001629    1.00   0.04  0.02  0.00  0.93  0.00  0.02  0.00  0.00  0.00
  YS02163301YS02001633    1.00   0.00  0.04  0.00  0.96  0.00  0.00  0.00  0.00  0.00
  YS02163601YS02164001    1.00   0.00  0.02  0.00  0.98  0.00  0.00  0.00  0.00  0.00
  YS02164001YS02001641    1.00   0.00  0.02  0.00  0.97  0.00  0.00  0.00  0.06  0.00
  YS02001641YS02001644    1.00   0.00  0.00  0.00  1.00  0.00  0.00  0.00  0.00  0.00
  YS02001647YS02001649    1.00   0.00  0.05  0.00  0.95  0.00  0.00  0.00  0.01  0.00
  YS02006553YS02006556    1.00   0.01  0.00  0.00  0.99  0.00  0.00  0.00  0.03  0.00
  YS02006556YS02006558    1.00   0.00  0.00  0.00  1.00  0.00  0.00  0.00  0.00  0.00
  YSB6556YSB1171          1.00   0.01  0.02  0.00  0.96  0.00  0.00  0.00  0.00  0.00
  YS02001907YS02006553    1.00   0.00  0.01  0.00  0.99  0.00  0.00  0.00  0.00  0.00
  YS02006558YS02006561    1.00   0.05  0.00  0.00  0.16  0.79  0.00  0.00  0.49  0.00
  YS02001633YS02163601    1.00   0.00  0.00  0.00  1.00  0.00  0.00  0.00  0.15  0.00
  YS02001644YS02001647    1.00   0.00  0.05  0.00  0.95  0.00  0.00  0.00  0.00  0.00
  YS02001745YS02001748    1.00   0.00  0.00  0.00  0.90  0.01  0.00  0.09  0.04  0.00
  YS02001748YS02001751    1.00   0.00  0.00  0.00  0.97  0.03  0.00  0.00  0.15  0.00
  YS02001751YS02001754    1.00   0.00  0.00  0.00  0.94  0.00  0.00  0.06  0.02  0.00
  YS02001754YS02001757    1.00   0.00  0.00  0.00  1.00  0.00  0.00  0.00  0.18  0.00
  YS02001882YS02001884    1.00   0.04  0.00  0.00  0.95  0.00  0.00  0.00  0.00  0.00
  YS02001884YS02001887    1.00   0.02  0.02  0.00  0.97  0.00  0.00  0.00  0.00  0.00
  YS02001890YS02001895    1.00   0.00  0.04  0.00  0.95  0.00  0.00  0.00  0.00  0.00
  YS02001895YS02001898    1.00   0.05  0.00  0.00  0.94  0.00  0.01  0.00  0.00  0.00
  YS02001898YS02001901    1.00   0.05  0.00  0.00  0.95  0.00  0.00  0.00  0.01  0.00
  YS02001901YS02001904    1.00   0.05  0.00  0.00  0.95  0.00  0.00  0.00  0.00  0.00
  YS02001904YS02001907    1.00   0.00  0.05  0.00  0.95  0.00  0.00  0.00  0.00  0.00
  YS02001887YS02001890    1.00   0.00  0.00  0.00  0.99  0.00  0.01  0.00  0.00  0.00
  YS02001652YS02001649    1.00   0.00  0.00  0.00  1.00  0.00  0.00  0.00  0.16  0.00
  YS02001655YS02001652    1.00   0.00  0.00  0.00  0.94  0.00  0.00  0.06  0.02  0.00
  YS02001658YS02001655    1.00   0.00  0.04  0.00  0.93  0.03  0.00  0.00  0.08  0.00
  YS02001661YS02001658    1.00   0.04  0.00  0.00  0.90  0.06  0.00  0.00  0.08  0.00
  YS02001664YS02001661    1.00   0.04  0.00  0.00  0.91  0.05  0.00  0.00  0.19  0.00
  YSB1154YSB6556          1.00   0.04  0.00  0.00  0.96  0.00  0.00  0.00  0.01  0.00
  YSB1174YSB1171          1.00   0.02  0.01  0.00  0.97  0.00  0.00  0.00  0.00  0.00
  YSB1171HS02004479       1.00   0.01  0.00  0.00  0.98  0.00  0.00  0.00  0.10  0.00
  HS02004881HS02006253    1.00   0.02  0.00  0.00  0.39  0.04  0.00  0.55  0.25  0.00
  YS02001793JiankangQianchi    1.00   0.00  0.00  0.00  0.72  0.28  0.00  0.00  0.42  0.00
  YS02001757CaochengTiaoxuchi    1.00   0.00  0.07  0.00  0.93  0.00  0.00  0.00  0.00  0.00
  WSF200WS02003060        1.00   0.00  0.01  0.00  0.96  0.03  0.00  0.00  0.50  0.00
  1                       1.00   0.00  0.00  0.00  0.00  1.00  0.00  0.00  0.54  0.00
  
  
  *************************
  Conduit Surcharge Summary
  *************************
  
  ----------------------------------------------------------------------------
                                                           Hours        Hours 
                         --------- Hours Full --------   Above Full   Capacity
  Conduit                Both Ends  Upstream  Dnstream   Normal Flow   Limited
  ----------------------------------------------------------------------------
  WS02006229WS02006228        2.23      2.33      2.23      3.37         2.23
  WS02006256WS02006235        5.09      5.09      6.71      3.92         0.01
  WS02006253WS02006251        0.08      0.08      0.11      0.01         0.01
  WS02006252WS02006251        0.09      0.09      0.25      0.21         0.01
  WS02006251WS02006249        0.09      0.09      0.12      0.06         0.01
  WS02006249WS02006248        0.10      0.10      0.12      0.89         0.01
  WS02006248WS02006247        0.11      0.11      0.32      0.01         0.01
  WS02006247WS02006245        0.32      0.34      0.32      1.64         0.31
  WS02006245WS02006243        0.35      0.35      0.45      0.01         0.01
  WS02006243WS02006242        0.52      0.52      1.03      0.01         0.01
  WS02006242WS02006240        0.92      0.92      1.10      0.13         0.01
  WS02006240WS02006239        1.02      1.02      1.11      0.01         0.01
  WS02006239WS02006238        1.22      1.22      1.56      0.01         0.01
  WS02006238WS02006235        1.54      1.54      1.75      0.01         0.01
  WS02006235WS02006234        1.17      1.17      1.42      4.97         0.01
  WS02006234WS02006232        1.30      1.30      1.98      0.01         0.02
  WS02006232WS02006231        0.80      0.80      1.98      0.04         0.01
  WS02006231WS02006230        0.35      0.35      0.90      5.21         0.01
  WS02006230WS02006229        2.79      3.08      2.79      5.61         2.79
  WS02006228WS02006109        2.28      2.55      2.28      4.24         2.28
  WS02006116WS02004401        0.09      0.09      0.11      0.01         0.01
  WS02006112WS02006115        0.01      0.01      1.30      0.01         0.01
  WS02006111WS02006112        0.01      0.01      3.64      0.01         0.01
[...]
  YS02001762YS02001759        5.87      5.87      5.89      0.01         0.01
  YS02001765YS02001762        5.84      5.84      5.87      0.01         0.01
  YS02001770YS02001767        5.81      5.81      5.81      0.33         0.69
  YS02001774YS02001770        5.80      5.80      5.86      0.01         0.01
  YS02001779YS02001774        5.67      5.67      5.86      0.01         0.01
  YS02001649YS02001757        5.87      5.87      5.98      0.01         0.01
  YS02001767YS02001765        5.81      5.81      5.84      0.01         0.01
  YS02006561YS02001783        0.77      0.77      1.06      0.01         0.01
  YS02001783YS02001784        1.03      1.06      1.04      1.40         1.02
  YS02001784YS02001785        0.98      1.04      0.98      2.40         0.98
  YS02001788YS02001790        0.93      0.93      1.68      0.01         0.01
  YS02001790YS02001791        1.68      1.68      1.79      0.87         0.86
  YS02001791YS02001793        1.79      1.79      2.18      0.01         0.01
  YS02001910YS02001907        1.07      1.07      1.77      0.01         0.01
  YS02001786YS02001788        0.93      0.98      0.93      2.03         0.93
  YS02001915YS02001910        0.89      0.89      1.07      0.01         0.01
  YS02001918YS02001915        0.71      0.71      0.89      0.01         0.01
  YS02001923YS02001920        0.55      0.55      0.74      0.01         0.01
  YS02001920YS02001918        0.71      0.71      0.74      0.01         0.01
  YS02001629YS02163301        5.80      5.80      5.81      0.01         0.01
  YS02001619YS02001622        5.48      5.48      5.51      0.01         0.01
  YS02001622YS02001625        5.51      5.51      5.76      0.01         0.01
  YS02001625YS02001629        5.48      5.48      5.76      0.01         0.01
  YS02163301YS02001633        5.81      5.81      5.84      0.01         0.01
  YS02163601YS02164001        5.84      5.84      5.87      0.01         0.01
  YS02164001YS02001641        5.84      5.84      5.85      0.01         0.03
  YS02001641YS02001644        5.85      5.85      5.85      1.52         1.70
  YS02001647YS02001649        5.75      5.75      5.87      0.01         0.01
  YS02006553YS02006556        1.31      1.31      1.88      0.01         0.01
  YS02006556YS02006558        1.52      1.52      1.95      0.01         0.01
  YS02001907YS02006553        2.41      2.41      2.62      0.01         0.01
  YS02006558YS02006561        0.91      1.26      0.91      2.23         0.91
  YS02001633YS02163601        5.83      5.83      5.87      0.01         0.01
  YS02001644YS02001647        5.75      5.75      5.85      0.01         0.01
  YS02001745YS02001748        0.01      0.01      5.30      0.01         0.01
  YS02001748YS02001751        5.36      5.36      5.49      0.01         0.01
  YS02001751YS02001754        5.49      5.49      5.70      0.01         0.01
  YS02001754YS02001757        5.74      5.74      5.98      0.01         0.01
  YS02001882YS02001884        0.91      0.91      0.93      0.01         0.01
  YS02001884YS02001887        0.97      0.97      1.00      0.01         0.01
  YS02001890YS02001895        0.88      0.88      1.08      0.01         0.01
  YS02001895YS02001898        0.87      0.87      0.88      0.01         0.01
  YS02001898YS02001901        0.89      0.89      0.97      0.01         0.01
  YS02001901YS02001904        0.95      0.95      0.97      0.01         0.01
  YS02001904YS02001907        0.95      0.95      1.90      0.01         0.01
  YS02001887YS02001890        1.02      1.02      1.05      0.01         0.01
  YS02001652YS02001649        5.76      5.76      5.87      0.01         0.01
  YS02001655YS02001652        5.50      5.50      5.73      0.01         0.01
  YS02001658YS02001655        5.33      5.33      5.50      0.01         0.01
  YS02001661YS02001658        0.15      0.15      5.33      0.01         0.01
  YS02001664YS02001661        0.01      0.01      1.17      0.01         0.01
  YS02001793JiankangQianchi        2.07      2.07      4.16      0.01         0.01
  YS02001757CaochengTiaoxuchi        5.21      5.21      5.98      0.01         0.01
  
  
  ***************
  Pumping Summary
  ***************
  
  ---------------------------------------------------------------------------------------------------------
                                                  Min       Avg       Max     Total     Power    % Time Off
                        Percent   Number of      Flow      Flow      Flow    Volume     Usage    Pump Curve
  Pump                 Utilized   Start-Ups       LPS       LPS       LPS  10^6 ltr     Kw-hr    Low   High
  ---------------------------------------------------------------------------------------------------------
  CC-Pump-1               38.30           4      0.00    124.32    200.00     1.200      0.70    0.0    0.0
  CC-Pump-2                8.50           2      0.00    107.62    199.96     0.240      0.22    0.0    0.0
  JK-Pump-1               55.32           5      0.00    228.65    300.00     3.279     50.66    0.0    0.0
  JK-Pump-2               55.32           5      0.00    453.92    683.00     6.313     88.73    0.0   95.3
  XR-Pump-1               95.74           3      0.00     92.96     95.00     2.451     22.34    0.0    0.0
  XR-Pump-2               95.74           3      0.00     92.96     95.00     2.451     22.34    0.0    0.0
  XR-Pump-3               95.74           3      0.00     92.96     95.00     2.451     22.34    0.0    0.0
  XR-Pump-4               95.74           3      0.00     92.96     95.00     2.451     22.34    0.0    0.0
  
  
  ***************************
  Link Pollutant Load Summary
  ***************************
  
  ------------------------------------------------------------------------------------------
                                 COD            SS            TN            TP         NH4-N
  Link                            kg            kg            kg            kg            kg
  ------------------------------------------------------------------------------------------
  WS02003066WSF200           634.668      1173.839        17.481         1.575         9.313
  WS02006287WS02006284       268.032       498.155         9.346         0.943         5.213
  WS02006284WS02006280       268.519       498.938         9.393         0.949         5.243
  WS02006280WS02006229       268.489       498.881         9.391         0.948         5.242
  WS02006229WS02006228       632.014      1169.067        17.191         1.535         9.130
  WS02006256WS02006235       199.464       367.176         4.303         0.330         2.163
  WS02006253WS02006251        50.015        96.648         1.102         0.082         0.545
  WS02006252WS02006251       122.847       222.211         2.620         0.193         1.296
  WS02006251WS02006249       167.951       310.070         3.625         0.269         1.795
  WS02006249WS02006248       167.342       308.923         3.607         0.267         1.786
  WS02006248WS02006247       167.698       309.604         3.614         0.268         1.789
  WS02006247WS02006245       167.554       309.345         3.609         0.267         1.786
  WS02006245WS02006243       167.156       308.710         3.594         0.266         1.778
  WS02006243WS02006242       167.173       308.747         3.595         0.266         1.779
  WS02006242WS02006240       167.845       309.991         3.608         0.267         1.785
  WS02006240WS02006239       169.556       313.133         3.645         0.269         1.803
  WS02006239WS02006238       172.130       317.584         3.718         0.276         1.842
  WS02006238WS02006235       173.421       319.646         3.756         0.279         1.863
  WS02006235WS02006234       365.843       674.255         7.879         0.594         3.933
  WS02006234WS02006232       365.702       673.987         7.880         0.595         3.933
  WS02006232WS02006231       365.340       673.320         7.871         0.594         3.929
  WS02006231WS02006230       365.024       672.737         7.865         0.593         3.926
  WS02006230WS02006229       364.393       671.672         7.845         0.592         3.915
  WS02006228WS02006109       631.107      1167.490        17.148         1.530         9.105
  WS02006116WS02004401       642.682      1187.692        17.874         1.618         9.544
  WS02006115WS02006116       643.834      1189.704        17.922         1.623         9.572
  WS02006113WS02006111       637.097      1176.699        17.858         1.621         9.554
  WS02006112WS02006115       645.076      1191.877        17.972         1.628         9.601
  WS02006111WS02006112       636.641      1175.904        17.841         1.619         9.544
  WS02006110WS02006113       637.614      1177.610        17.879         1.623         9.566
  WS02006109WS02006110       638.779      1179.633        17.932         1.629         9.596
  WS02004411WS02004412       636.342      1176.691        17.579         1.586         9.372
  WS02004401WS02004402       641.303      1185.299        17.811         1.611         9.508
  WS02004413WS02003067       634.689      1173.866        17.487         1.575         9.317
  WS02004412WS02004413       635.912      1175.962        17.553         1.583         9.357
  WS02004410WS02004411       636.645      1177.202        17.599         1.588         9.384
  WS02004409WS02004410       637.099      1177.977        17.625         1.591         9.400
  WS02004407WS02004409       637.281      1178.278        17.640         1.593         9.409
  WS02004406WS02004407       637.130      1178.008        17.638         1.593         9.408
  WS02004405WS02004406       638.598      1180.487        17.731         1.604         9.464
  WS02004404WS02004405       639.269      1181.651        17.760         1.607         9.481
  WS02004403WS02004404       638.926      1181.198        17.692         1.598         9.438
  WS02004402WS02004403       640.105      1183.229        17.752         1.605         9.473
  WS02004139WS02001211      1386.393      2284.454       115.218        14.109        71.150
  WS02004138WS02004139      1392.825      2295.071       115.738        14.172        71.471
  WS02003067WS02003066       634.760      1173.998        17.486         1.575         9.316
  WS02001213WS02003059      1419.944      2337.441       118.645        14.540        73.302
  WS02001212WS02001213      1429.118      2352.493       119.415        14.635        73.778
  WS02001211WS02001212      1430.792      2355.221       119.561        14.653        73.869
  WS02003072WS02003073      2156.430      3673.585       146.083        17.363        88.847
  WS02003069WS02003072      2161.135      3681.287       146.478        17.411        89.091
  WS02003060WS02003069      2163.623      3685.434       146.667        17.434        89.207
  WS02003059WS02003060      1417.359      2333.106       118.455        14.518        73.186
  HS02004901HS02004770        10.270        19.477         0.195         0.015         0.091
  HS02004876HS02004881        37.316        72.575         0.843         0.062         0.416
  HS02004870HS02004876        28.158        54.624         0.678         0.051         0.338
  HS02004842HS02004848         5.466        10.276         0.115         0.008         0.053
  HS02004837HS02004842        10.072        17.581         0.584         0.067         0.347
  HS02004830HS02004837        65.637       112.701         4.556         0.546         2.785
  HS02004824HS02004830        66.388       113.904         4.628         0.555         2.830
  HS02004817HS02004824        88.204       156.971         5.083         0.584         3.051
  HS02004770HS02004777        39.294        75.462         0.819         0.055         0.377
  HS02004799HS02004480       131.402       245.354         3.680         0.335         1.932
  HS02004792HS02004799       119.079       220.649         3.497         0.327         1.853
  HS02004788HS02004792        68.393       126.850         2.388         0.235         1.309
  HS02004785HS02004788        40.731        77.756         0.969         0.074         0.471
  HS02004777HS02004785        40.058        76.663         0.909         0.067         0.434
  HS02004480HS02004478       165.938       312.566         4.243         0.374         2.195
  HS02004479HS02004480        38.140        72.966         0.884         0.079         0.462
  HS02004862HS02004870        21.014        40.114         0.536         0.043         0.270
  HS02004848HS02004852         8.057        15.279         0.167         0.011         0.077
  HS02004856HS02004862        14.071        27.339         0.284         0.019         0.133
  HS02004852HS02004856         8.064        15.290         0.167         0.011         0.077
  HS02004802HS02004478       102.880       186.875         5.162         0.575         3.055
  HS02004478WS02006287       268.234       498.496         9.363         0.945         5.224
  HS02004817HS02004807        86.884       154.854         4.956         0.568         2.972
  HS02004807HS02004802       103.108       187.233         5.194         0.580         3.075
  YS02001759YS02001757       288.249       522.177         5.814         0.403         2.845
  YS02001762YS02001759       166.768       304.723         3.504         0.247         1.731
  YS02001765YS02001762       167.623       306.975         3.539         0.250         1.751
  YS02001770YS02001767       169.702       312.876         3.411         0.228         1.658
  YS02001774YS02001770       226.089       431.410         4.393         0.292         2.125
  YS02001779YS02001774       225.586       430.380         4.493         0.307         2.193
  YS02001649YS02001757       363.191       652.379         7.364         0.504         3.552
  YS02001767YS02001765       169.135       310.446         3.581         0.253         1.774
  YS02006561YS02001783       936.004      1716.515        19.829         1.488         9.895
  YS02001783YS02001784       935.893      1716.339        19.825         1.487         9.893
  YS02001784YS02001785       943.190      1728.014        20.537         1.577        10.339
  YS02001788YS02001790       943.743      1728.889        20.609         1.586        10.385
  YS02001790YS02001791       944.791      1730.582        20.710         1.599        10.448
  YS02001791YS02001793       944.649      1730.333        20.704         1.598        10.445
  YS02001910YS02001907       330.178       599.365         8.230         0.642         4.252
  YS02001786YS02001788       943.364      1728.291        20.565         1.580        10.357
  YS02001915YS02001910       330.276       599.523         8.187         0.635         4.222
  YS02001918YS02001915       159.858       277.864         4.656         0.433         2.535
  YS02001923YS02001920       137.504       241.228         2.670         0.188         1.300
  YS02001926YS02001923       136.545       239.663         2.591         0.178         1.251
  YS02001929YS02001926       136.166       239.021         2.555         0.174         1.228
  YS02001920YS02001918       157.688       273.626         4.584         0.426         2.495
  YS02001629YS02163301       103.454       183.302         2.170         0.140         1.012
  YS02001619YS02001622       146.393       262.928         3.031         0.197         1.414
  YS02001622YS02001625       145.250       261.123         3.003         0.195         1.401
  YS02001625YS02001629       104.525       185.072         2.193         0.141         1.022
  YS02163301YS02001633       103.182       182.843         2.163         0.140         1.009
  YS02163601YS02164001       361.996       646.114         7.115         0.502         3.403
  YS02164001YS02001641       361.515       645.303         7.095         0.500         3.392
  YS02001641YS02001644       361.761       645.646         7.094         0.500         3.391
  YS02001647YS02001649       423.837       767.742         8.522         0.587         4.089
  YS02006553YS02006556       657.551      1200.236        14.231         1.094         7.177
  YS02006556YS02006558       657.468      1200.067        14.199         1.090         7.156
  YSB6556YSB1171              21.950        42.192         0.451         0.038         0.229
  YS02001907YS02006553       657.683      1200.506        14.245         1.096         7.186
  YS02006558YS02006561       935.999      1716.505        19.828         1.488         9.895
  YS02001633YS02163601       362.672       647.158         7.094         0.498         3.386
  YS02001644YS02001647       429.683       778.301         8.610         0.593         4.129
  YS02001745YS02001748       210.377       386.928         4.766         0.335         2.385
  YS02001748YS02001751       208.745       383.738         4.840         0.348         2.440
  YS02001751YS02001754       207.766       382.133         4.822         0.348         2.432
  YS02001754YS02001757       208.542       383.302         4.986         0.370         2.539
  YS02001882YS02001884         2.534         4.359         0.051         0.004         0.026
  YS02001884YS02001887         6.897        12.214         0.135         0.010         0.067
  YS02001890YS02001895       389.447       720.611         7.189         0.539         3.508
  YS02001895YS02001898       389.275       720.375         7.182         0.539         3.504
  YS02001898YS02001901       389.064       720.014         7.178         0.538         3.502
  YS02001901YS02001904       388.903       719.778         7.184         0.540         3.507
  YS02001904YS02001907       389.101       720.073         7.238         0.547         3.541
  YS02001887YS02001890       390.258       721.829         7.243         0.546         3.541
  YS02001652YS02001649       155.711       284.858         3.175         0.228         1.488
  YS02001655YS02001652       156.242       285.725         3.189         0.229         1.495
  YS02001658YS02001655       155.720       284.904         3.102         0.218         1.439
  YS02001661YS02001658       159.995       292.553         3.188         0.224         1.478
  YS02001664YS02001661       176.693       320.255         3.560         0.249         1.648
  YSB1154YSB6556              21.531        41.526         0.402         0.032         0.198
  YSB1174YSB1171              14.653        28.288         0.298         0.024         0.149
  YSB1171HS02004479           38.099        72.900         0.887         0.079         0.465
  HS02004881HS02006253        42.106        82.120         0.931         0.068         0.458
  YS02001793JiankangQianchi       944.960      1730.826        20.729         1.601        10.460
  YS02001757CaochengTiaoxuchi       463.521       834.018         9.906         0.723         4.895
  WSF200WS02003060           635.172      1174.717        17.508         1.578         9.329
  1                         2161.534      3681.541       146.622        17.431        89.187
  CC-Pump-1                  102.206       184.885         2.173         0.160         1.074
  CC-Pump-2                   20.456        37.022         0.434         0.032         0.214
  JK-Pump-1                  223.114       413.868         4.696         0.355         2.346
  JK-Pump-2                  507.930       942.196        10.692         0.808         5.341
  XR-Pump-1                  349.178       575.358        29.017         3.553        17.919
  XR-Pump-2                  349.178       575.358        29.017         3.553        17.919
  XR-Pump-3                  349.178       575.358        29.017         3.553        17.919
  XR-Pump-4                  349.178       575.358        29.017         3.553        17.919
  

  Analysis begun on:  Thu Jul 15 08:45:59 2021
  Analysis ended on:  Thu Jul 15 08:46:01 2021
  Total elapsed time: 00:00:02