
  EPA STORM WATER MANAGEMENT MODEL - VERSION 5.1 (Build 5.3.0.dev0)
  --------------------------------------------------------------

  WARNING 04: minimum elevation drop used for Conduit WS02004404WS02004405
  WARNING 03: negative offset ignored for Link YS02001904YS02001907
  
  *********************************************************
  NOTE: The summary statistics displayed in this report are
  based on results found at every computational time step,  
  not just on results from each reporting time step.
  *********************************************************
  
  ****************
  Analysis Options
  ****************
  Flow Units ............... LPS
  Process Models:
    Rainfall/Runoff ........ YES
    RDII ................... NO
    Snowmelt ............... NO
    Groundwater ............ NO
    Flow Routing ........... YES
    Ponding Allowed ........ NO
    Water Quality .......... YES
  Infiltration Method ...... HORTON
  Flow Routing Method ...... DYNWAVE
  Surcharge Method ......... EXTRAN
  Starting Date ............ 08/28/2015 08:00:00
  Ending Date .............. 08/28/2015 15:50:00
  Antecedent Dry Days ...... 8.0
  Report Time Step ......... 00:01:00
  Wet Time Step ............ 00:01:00
  Dry Time Step ............ 00:01:00
  Routing Time Step ........ 5.00 sec
  Variable Time Step ....... YES
  Maximum Trials ........... 8
  Number of Threads ........ 4
  Head Tolerance ........... 0.001500 m
  
  
  **************************        Volume         Depth
  Runoff Quantity Continuity     hectare-m            mm
  **************************     ---------       -------
  Total Precipitation ......         5.556        12.164
  Evaporation Loss .........         0.000         0.000
  Infiltration Loss ........         1.002         2.194
  Surface Runoff ...........         3.688         8.075
  Final Storage ............         0.866         1.897
  Continuity Error (%) .....        -0.019
  
  
  **************************           COD            SS            TN            TP         NH4-N
  Runoff Quality Continuity             kg            kg            kg            kg            kg
  **************************    ----------    ----------    ----------    ----------    ----------
  Initial Buildup ..........     41378.656     70582.865      1804.177       168.684      1032.807
  Surface Buildup ..........        19.275        34.271         2.335         0.213         1.362
  Wet Deposition ...........         0.000         0.000         0.000         0.000         0.000
  Sweeping Removal .........         0.000         0.000         0.000         0.000         0.000
  Infiltration Loss ........        84.023       157.502         1.599         0.111         0.761
  BMP Removal ..............         0.000         0.000         0.000         0.000         0.000
  Surface Runoff ...........      3122.074      5752.154        60.620         4.098        28.771
  Remaining Buildup ........     38190.779     64705.500      1744.271       164.686      1004.628
  Continuity Error (%) .....         0.003         0.003         0.001         0.001         0.001
  
  
  **************************        Volume        Volume
  Flow Routing Continuity        hectare-m      10^6 ltr
  **************************     ---------     ---------
  Dry Weather Inflow .......         0.616         6.165
  Wet Weather Inflow .......         3.687        36.869
  Groundwater Inflow .......         0.000         0.000
  RDII Inflow ..............         0.000         0.000
  External Inflow ..........         0.102         1.024
  External Outflow .........         1.848        18.481
  Flooding Loss ............         2.133        21.333
  Evaporation Loss .........         0.000         0.000
  Exfiltration Loss ........         0.000         0.000
  Initial Stored Volume ....         0.076         0.761
  Final Stored Volume ......         0.627         6.268
  Continuity Error (%) .....        -2.819
  
  
  **************************           COD            SS            TN            TP         NH4-N
  Quality Routing Continuity            kg            kg            kg            kg            kg
  **************************    ----------    ----------    ----------    ----------    ----------
  Dry Weather Inflow .......      1541.201      2465.922       147.955        18.494        92.472
  Wet Weather Inflow .......      3121.155      5750.542        60.601         4.097        28.762
  Groundwater Inflow .......         0.000         0.000         0.000         0.000         0.000
  RDII Inflow ..............         0.000         0.000         0.000         0.000         0.000
  External Inflow ..........       183.418       293.469        17.608         2.201        11.005
  External Outflow .........      2216.635      3779.627       148.052        17.551        89.934
  Flooding Loss ............      1920.427      3508.307        50.490         4.421        26.630
  Exfiltration Loss ........         0.000         0.000         0.000         0.000         0.000
  Mass Reacted .............         0.000         0.000         0.000         0.000         0.000
  Initial Stored Mass ......         0.000         0.000         0.000         0.000         0.000
  Final Stored Mass ........       542.914       935.164        23.603         2.503        13.632
  Continuity Error (%) .....         3.422         3.371         1.778         1.279         1.545
  
  
  *************************
  Highest Continuity Errors
  *************************
  Node HS02004842 (14.53%)
  Node JK-storage (-12.48%)
  Node YS02001884 (11.40%)
  Node YSB1171 (2.74%)
  Node HS02004817 (2.73%)
  
  
  ***************************
  Time-Step Critical Elements
  ***************************
  Link WS02006252WS02006251 (54.62%)
  Link WS02006280WS02006229 (11.06%)
  Link WS02006238WS02006235 (11.00%)
  Link YS02001793JiankangQianchi (7.38%)
  Link WS02004404WS02004405 (3.47%)
  
  
  ********************************
  Highest Flow Instability Indexes
  ********************************
  Link WS02006113WS02006111 (53)
  Link YS02163601YS02164001 (43)
  Link YS02163301YS02001633 (42)
  Link YS02001629YS02163301 (42)
  Link YS02001619YS02001622 (41)
  
  
  *************************
  Routing Time Step Summary
  *************************
  Minimum Time Step           :     0.23 sec
  Average Time Step           :     1.32 sec
  Maximum Time Step           :     5.00 sec
  Percent in Steady State     :    -0.00
  Average Iterations per Step :     4.63
  Percent Not Converging      :    23.64
  
  
  ***************************
  Subcatchment Runoff Summary
  ***************************
  
  ------------------------------------------------------------------------------------------------------------------------------
                            Total      Total      Total      Total     Imperv       Perv      Total       Total     Peak  Runoff
                           Precip      Runon       Evap      Infil     Runoff     Runoff     Runoff      Runoff   Runoff   Coeff
  Subcatchment                 mm         mm         mm         mm         mm         mm         mm    10^6 ltr      LPS
  ------------------------------------------------------------------------------------------------------------------------------
  sub0                      12.16       0.00       0.00       0.65      11.27       0.20      11.47        0.01     1.99   0.943
  sub1                      12.16       0.00       0.00       1.12      10.73       0.22      10.95        0.07    14.96   0.900
  sub2                      12.16       0.00       0.00       4.23       7.58       0.27       7.85        0.07    15.08   0.646
  sub3                      12.16       0.00       0.00       4.29       7.54       0.21       7.75        0.17    34.61   0.637
  sub4                      12.16       0.00       0.00       1.19      10.57       0.14      10.71        0.22    42.34   0.881
  sub5                      12.16       0.00       0.00       0.69      11.21       0.16      11.38        0.13    26.18   0.935
  sub7                      12.16       0.00       0.00       0.88      11.01       0.22      11.22        0.04     7.95   0.923
  sub8                      12.16       0.00       0.00       0.89      11.00       0.21      11.20        0.07    14.89   0.921
  sub9                      12.16       0.00       0.00       0.89      10.99       0.21      11.20        0.05    11.18   0.921
  sub10                     12.16       0.00       0.00       0.79      11.10       0.18      11.28        0.12    25.49   0.928
  sub11                     12.16       0.00       0.00       0.78      11.12       0.19      11.31        0.13    27.35   0.930
  sub12                     12.16       0.00       0.00       1.27      10.53       0.31      10.85        0.09    20.52   0.892
  sub14                     12.16       0.00       0.00       0.89      10.99       0.20      11.20        0.11    22.08   0.920
  sub15                     12.16       0.00       0.00       3.28       8.45       0.37       8.82        0.15    32.49   0.725
  sub16                     12.16       0.00       0.00       3.51       8.11       0.50       8.61        0.09    20.36   0.708
  sub17                     12.16       0.00       0.00       3.41       8.23       0.48       8.71        0.07    16.72   0.716
  sub22                     12.16       0.00       0.00       4.80       6.89       0.43       7.32        0.46   102.62   0.602
  sub23                     12.16       0.00       0.00       4.05       7.62       0.45       8.07        0.38    85.35   0.663
  sub60                     12.16       0.00       0.00       1.42       8.82       0.04       8.86        2.69   336.84   0.729
  sub61                     12.16       0.00       0.00       2.01       8.94       0.06       9.00        2.78   399.45   0.740
  sub62                     12.16       0.00       0.00       0.92       9.73       0.05       9.78        3.01   415.79   0.804
  sub63                     12.16       0.00       0.00       3.46       7.82       0.06       7.88        2.39   361.21   0.648
  sub64                     12.16       0.00       0.00       1.78       8.47       0.04       8.51        2.59   320.97   0.699
  sub65                     12.16       0.00       0.00       1.54       8.61       0.04       8.65        2.66   326.54   0.711
  sub66                     12.16       0.00       0.00       3.49       7.26       0.04       7.30        2.24   290.53   0.600
  sub67                     12.16       0.00       0.00       0.91      10.24       0.07      10.31        3.18   494.23   0.848
  sub68                     12.16       0.00       0.00       1.64       9.40       0.06       9.46        2.91   432.52   0.778
  sub69                     12.16       0.00       0.00       1.73       9.72       0.09       9.82        2.29   383.95   0.807
  sub70                     12.16      10.02       0.00       6.98      13.09       0.56      13.65        3.12   394.93   0.615
  sub71                     12.16       0.00       0.00       0.93       9.48       0.05       9.53        2.25   296.34   0.783
  sub72                     12.16       0.00       0.00       0.83       7.62       0.02       7.64        1.56   151.13   0.628
  1                         12.16      13.29       0.00       1.37      14.64       3.94      18.57        4.36   399.24   0.730
  2                         12.16       0.00       0.00       3.02       2.89       1.65       4.55        1.82   245.52   0.374
  
  
  ****************************
  Subcatchment Washoff Summary
  ****************************
  
  ------------------------------------------------------------------------------------------
                                 COD            SS            TN            TP         NH4-N
  Subcatchment                    kg            kg            kg            kg            kg
  ------------------------------------------------------------------------------------------
  sub0                         2.176         4.147         0.037         0.003         0.018
  sub1                         9.268        18.138         0.173         0.012         0.083
  sub2                         5.563        10.570         0.119         0.008         0.054
  sub3                        13.747        25.918         0.288         0.019         0.132
  sub4                        21.530        42.606         0.429         0.026         0.205
  sub5                        21.300        41.103         0.378         0.029         0.183
  sub7                         4.748         9.424         0.090         0.006         0.043
  sub8                         7.142        14.500         0.143         0.008         0.069
  sub9                         6.100        12.212         0.118         0.007         0.057
  sub10                       17.532        34.266         0.321         0.023         0.155
  sub11                       17.086        33.770         0.320         0.022         0.154
  sub12                       14.392        27.890         0.260         0.019         0.125
  sub14                       13.021        25.823         0.247         0.016         0.119
  sub15                       16.182        30.744         0.313         0.023         0.146
  sub16                       10.318        19.555         0.197         0.015         0.092
  sub17                        9.471        17.789         0.175         0.014         0.082
  sub22                       48.821        90.813         0.932         0.070         0.434
  sub23                       29.138        56.181         0.627         0.041         0.287
  sub60                      203.703       376.194         4.083         0.248         1.956
  sub61                      251.300       461.579         4.699         0.320         2.261
  sub62                      262.762       491.326         5.157         0.324         2.474
  sub63                      185.047       334.594         3.739         0.261         1.731
  sub64                      253.867       452.095         4.687         0.339         2.235
  sub65                      260.106       465.192         4.834         0.344         2.309
  sub66                      146.558       263.078         3.037         0.197         1.417
  sub67                      388.205       718.566         6.963         0.510         3.363
  sub68                      276.714       513.393         5.318         0.356         2.539
  sub69                      247.676       464.012         4.658         0.325         2.225
  sub70                      413.256       778.342         8.287         0.572         3.877
  sub71                      173.740       327.842         3.597         0.206         1.720
  sub72                      136.329       239.316         2.558         0.174         1.230
  1                          280.724       531.718         5.751         0.398         2.660
  2                           35.485        61.812         1.030         0.062         0.437
  ------------------------------------------------------------------------------------------
  System                    3783.006      6994.507        73.566         4.996        34.873
  
  
  ******************
  Node Depth Summary
  ******************
  
  ---------------------------------------------------------------------------------
                                 Average  Maximum  Maximum  Time of Max    Reported
                                   Depth    Depth      HGL   Occurrence   Max Depth
  Node                 Type       Meters   Meters   Meters  days hr:min      Meters
  ---------------------------------------------------------------------------------
  WS02001211           JUNCTION     0.76     0.82     5.65     0  03:14        0.82
  WS02001212           JUNCTION     0.47     0.54     5.60     0  03:13        0.54
  WS02001213           JUNCTION     0.71     0.80     5.56     0  03:12        0.80
  WS02003069           JUNCTION     0.50     0.65     5.23     0  03:12        0.65
  WS02003072           JUNCTION     0.56     0.70     5.07     0  03:12        0.70
  WS02003073           JUNCTION     0.34     0.44     4.50     0  03:13        0.44
  WS02003060           JUNCTION     0.44     0.57     5.50     0  03:11        0.57
  WS02003066           JUNCTION     0.24     0.34     5.89     0  03:10        0.34
  WS02003059           JUNCTION     0.76     0.86     5.54     0  03:12        0.86
  WS02003067           JUNCTION     0.57     0.76     6.08     0  03:10        0.76
  WS02004401           JUNCTION     0.69     1.03     7.03     0  03:08        1.03
  WS02004402           JUNCTION     0.72     1.04     7.00     0  03:08        1.04
  WS02004403           JUNCTION     0.74     1.04     6.97     0  03:08        1.04
  WS02004404           JUNCTION     0.81     1.11     6.96     0  02:22        1.10
  WS02004406           JUNCTION     0.81     1.06     6.89     0  03:09        1.06
  WS02004409           JUNCTION     0.50     0.80     6.57     0  03:09        0.80
  WS02004410           JUNCTION     0.52     0.80     6.52     0  03:09        0.80
  WS02004411           JUNCTION     0.54     0.80     6.48     0  03:10        0.80
  WS02004412           JUNCTION     0.55     0.79     6.43     0  03:10        0.79
  WS02004413           JUNCTION     0.71     0.94     6.41     0  03:10        0.94
  WS02004405           JUNCTION     0.80     1.08     6.93     0  03:08        1.08
  WS02006109           JUNCTION     0.77     1.15     7.77     0  03:05        1.15
  WS02006110           JUNCTION     0.76     1.04     7.62     0  03:07        1.03
  WS02006111           JUNCTION     0.23     0.46     7.17     0  03:08        0.46
  WS02006112           JUNCTION     0.86     1.27     7.15     0  03:04        1.26
  WS02006113           JUNCTION     0.34     0.52     7.42     0  03:07        0.52
  WS02006115           JUNCTION     0.58     0.96     7.10     0  03:08        0.96
  WS02006116           JUNCTION     0.66     1.03     7.07     0  03:08        1.03
  WS02006230           JUNCTION     0.76     1.31     8.05     0  03:07        1.30
  WS02006231           JUNCTION     0.51     1.00     8.13     0  03:09        1.00
  WS02006232           JUNCTION     0.64     1.16     8.20     0  03:10        1.16
  WS02006234           JUNCTION     0.57     1.13     8.29     0  03:10        1.13
  WS02006235           JUNCTION     0.60     1.20     8.36     0  03:32        1.19
  WS02006238           JUNCTION     0.62     1.22     8.37     0  03:36        1.22
  WS02006240           JUNCTION     0.52     1.16     8.45     0  03:30        1.15
  WS02006242           JUNCTION     0.57     1.24     8.51     0  03:39        1.23
  WS02006243           JUNCTION     0.45     1.14     8.56     0  03:30        1.13
  WS02006245           JUNCTION     0.42     1.12     8.61     0  03:35        1.11
  WS02006247           JUNCTION     0.43     1.14     8.64     0  03:38        1.13
  WS02006248           JUNCTION     0.37     1.08     8.67     0  03:30        1.08
  WS02006249           JUNCTION     0.39     1.09     8.69     0  03:30        1.09
  WS02006239           JUNCTION     0.58     1.20     8.41     0  03:30        1.20
  WS02006251           JUNCTION     0.36     1.47     9.14     0  03:30        1.12
  WS02006252           JUNCTION     0.24     1.04     9.28     0  03:30        0.68
  WS02006253           JUNCTION     0.39     1.50     9.15     0  03:30        1.34
  WS02006256           JUNCTION     1.61     2.35     9.28     0  00:42        2.35
  WS02004138           JUNCTION     0.19     0.20     7.45     0  00:00        0.19
  WS02004139           JUNCTION     0.71     0.76     5.67     0  03:14        0.76
  WS02004407           JUNCTION     0.23     0.35     6.66     0  03:09        0.35
  WS02006228           JUNCTION     0.78     1.24     7.89     0  03:07        1.24
  WS02006229           JUNCTION     0.76     1.27     7.97     0  03:07        1.27
  WS02006280           JUNCTION     0.07     0.20     8.47     0  03:02        0.20
  WS02006284           JUNCTION     0.38     0.56     8.96     0  03:02        0.56
  WS02006287           JUNCTION     0.11     0.30     9.25     0  03:01        0.30
  WSF200               JUNCTION     0.22     0.37     5.60     0  03:10        0.37
  HS02004901           JUNCTION     0.13     0.29    10.12     0  03:01        0.29
  HS02004881           JUNCTION     0.01     0.04     9.07     0  03:01        0.04
  HS02004876           JUNCTION     0.05     0.12     9.15     0  03:01        0.12
  HS02004870           JUNCTION     0.02     0.07     9.35     0  03:01        0.07
  HS02004862           JUNCTION     0.02     0.08     9.46     0  03:01        0.08
  HS02004856           JUNCTION     0.08     0.13     9.55     0  03:01        0.13
  HS02004852           JUNCTION     0.01     0.05     9.56     0  03:01        0.05
  HS02004848           JUNCTION     0.01     0.05     9.65     0  03:01        0.05
  HS02004842           JUNCTION     0.34     0.38     9.65     0  03:01        0.38
  HS02004837           JUNCTION     0.03     0.07     9.65     0  03:01        0.07
  HS02004830           JUNCTION     0.04     0.08     9.55     0  03:01        0.08
  HS02004824           JUNCTION     0.03     0.06     9.47     0  03:01        0.06
  HS02004817           JUNCTION     0.45     0.61     9.45     0  03:01        0.61
  HS02004807           JUNCTION     0.13     0.28     9.45     0  03:01        0.28
  HS02004802           JUNCTION     0.17     0.31     9.44     0  03:01        0.31
  HS02004799           JUNCTION     0.13     0.35     9.56     0  03:01        0.35
  HS02004792           JUNCTION     0.04     0.15     9.67     0  03:01        0.15
  HS02004788           JUNCTION     0.03     0.11    10.01     0  03:01        0.11
  HS02004785           JUNCTION     0.05     0.18    10.09     0  03:01        0.18
  HS02004777           JUNCTION     0.15     0.31    10.11     0  03:01        0.31
  HS02004770           JUNCTION     0.12     0.29    10.12     0  03:01        0.29
  HS02004480           JUNCTION     0.09     0.28     9.52     0  03:01        0.28
  HS02004479           JUNCTION     0.12     0.32     9.52     0  03:01        0.32
  HS02004478           JUNCTION     0.07     0.20     9.42     0  03:01        0.20
  YS02001745           JUNCTION     0.73     0.93     8.45     0  03:01        0.93
  YS02001748           JUNCTION     1.13     2.27     9.35     0  02:26        1.36
  YS02001751           JUNCTION     1.31     2.14     9.02     0  02:26        1.56
  YS02001754           JUNCTION     1.56     2.00     8.61     0  02:26        1.82
  YS02001762           JUNCTION     1.76     2.04     8.44     0  02:52        2.02
  YS02001765           JUNCTION     1.71     1.99     8.44     0  03:00        1.97
  YS02001767           JUNCTION     1.68     1.94     8.43     0  02:52        1.93
  YS02001770           JUNCTION     1.67     1.92     8.41     0  03:00        1.92
  YS02001774           JUNCTION     1.74     1.98     8.41     0  02:27        1.97
  YS02001779           JUNCTION     1.48     1.68     8.37     0  02:27        1.68
  YS02001882           JUNCTION     0.57     1.62     8.34     0  02:44        1.61
  YS02001884           JUNCTION     0.66     1.72     8.34     0  03:00        1.71
  YS02001759           JUNCTION     1.79     2.07     8.44     0  03:00        2.06
  YS02001887           JUNCTION     0.74     1.80     8.34     0  03:00        1.79
  YS02001890           JUNCTION     0.77     1.81     8.32     0  02:44        1.81
  YS02001898           JUNCTION     0.54     1.56     8.29     0  02:44        1.55
  YS02001901           JUNCTION     0.66     1.68     8.29     0  02:59        1.67
  YS02001904           JUNCTION     0.64     1.64     8.27     0  02:59        1.63
  YS02001907           JUNCTION     0.97     1.96     8.25     0  02:44        1.96
  YS02001910           JUNCTION     0.76     1.78     8.28     0  02:45        1.76
  YS02001915           JUNCTION     0.55     1.59     8.31     0  02:46        1.57
  YS02001918           JUNCTION     0.29     1.26     8.33     0  02:45        1.23
  YS02001619           JUNCTION     1.27     1.61     8.54     0  02:23        1.47
  YS02001629           JUNCTION     1.62     1.85     8.40     0  02:27        1.84
  YS02001641           JUNCTION     1.72     1.93     8.37     0  02:49        1.93
  YS02001644           JUNCTION     1.72     1.92     8.35     0  02:35        1.92
  YS02001652           JUNCTION     1.57     2.12     8.72     0  02:18        1.90
  YS02001655           JUNCTION     1.34     2.20     9.05     0  02:18        1.71
  YS02001920           JUNCTION     0.39     1.34     8.35     0  02:45        1.29
  YS02001923           JUNCTION     0.23     1.10     8.36     0  02:45        1.05
  YS02001926           JUNCTION     0.29     0.92     8.36     0  02:46        0.92
  YS02001929           JUNCTION     0.17     0.69     8.38     0  02:46        0.66
  YS02001658           JUNCTION     1.07     2.19     9.33     0  02:26        1.46
  YS02001661           JUNCTION     0.84     2.14     9.54     0  03:47        1.26
  YS02001664           JUNCTION     0.38     0.57     8.50     0  02:46        0.56
  YS02001622           JUNCTION     1.29     1.62     8.52     0  02:27        1.49
  YS02001633           JUNCTION     1.71     1.95     8.40     0  02:35        1.94
  YS02001649           JUNCTION     1.77     2.05     8.44     0  02:37        2.05
  YS02001757           JUNCTION     1.89     2.17     8.44     0  02:59        2.16
  YS02001895           JUNCTION     0.53     1.56     8.31     0  02:57        1.56
  YS02001625           JUNCTION     1.57     1.78     8.38     0  02:26        1.78
  YS02163301           JUNCTION     1.65     1.89     8.41     0  02:27        1.88
  YS02163601           JUNCTION     1.76     1.99     8.39     0  02:35        1.98
  YS02164001           JUNCTION     1.70     1.92     8.38     0  02:35        1.91
  YS02001647           JUNCTION     1.55     1.80     8.41     0  03:37        1.79
  YSB1154              JUNCTION     0.26     0.47     9.52     0  03:01        0.47
  YSB6556              JUNCTION     0.16     0.35     9.52     0  03:01        0.35
  YSB1174              JUNCTION     0.22     0.41     9.52     0  03:01        0.41
  YSB1171              JUNCTION     0.42     0.62     9.52     0  03:01        0.62
  YS02006553           JUNCTION     0.97     1.97     8.25     0  02:57        1.96
  YS02006561           JUNCTION     0.32     1.08     7.74     0  02:44        1.07
  YS02006556           JUNCTION     0.93     1.92     8.23     0  03:00        1.91
  YS02006558           JUNCTION     0.97     1.96     8.23     0  02:59        1.95
  YS02001783           JUNCTION     0.55     1.47     7.61     0  02:44        1.46
  YS02001784           JUNCTION     0.56     1.60     7.67     0  02:34        1.40
  YS02001786           JUNCTION     0.50     1.66     7.69     0  02:34        1.30
  YS02001788           JUNCTION     0.43     1.55     7.52     0  02:34        1.27
  YS02001790           JUNCTION     0.55     1.96     7.60     0  04:31        1.45
  YS02001791           JUNCTION     0.50     2.27     7.74     0  04:30        1.40
  YS02001793           JUNCTION     0.68     2.73     7.56     0  04:29        1.88
  WSC                  OUTFALL      0.34     0.44     1.11     0  03:13        0.44
  JK-storage           STORAGE      2.92     5.80     6.60     0  02:34        5.80
  CC-storage           STORAGE      1.15     1.43     8.43     0  03:04        1.43
  XR-storage           STORAGE      6.58     7.72     5.72     0  02:50        7.72
  
  
  *******************
  Node Inflow Summary
  *******************
  
  -------------------------------------------------------------------------------------------------
                                  Maximum  Maximum                  Lateral       Total        Flow
                                  Lateral    Total  Time of Max      Inflow      Inflow     Balance
                                   Inflow   Inflow   Occurrence      Volume      Volume       Error
  Node                 Type           LPS      LPS  days hr:min    10^6 ltr    10^6 ltr     Percent
  -------------------------------------------------------------------------------------------------
  WS02001211           JUNCTION      7.35   389.99     0  03:23       0.207        9.97       0.395
  WS02001212           JUNCTION      0.00   392.49     0  03:23           0        9.93       0.222
  WS02001213           JUNCTION      0.00   394.75     0  03:22           0        9.91       0.280
  WS02003069           JUNCTION      0.32  1126.18     0  03:12     0.00902        18.5       0.146
  WS02003072           JUNCTION      0.00  1126.12     0  03:12           0        18.5       0.185
  WS02003073           JUNCTION      1.82  1127.98     0  03:13      0.0514        18.5       0.207
  WS02003060           JUNCTION     16.53  1125.81     0  03:11       0.466        18.5       0.139
  WS02003066           JUNCTION      0.00   723.90     0  03:10           0        8.24       0.033
  WS02003059           JUNCTION      0.00   397.85     0  03:22           0        9.88       0.385
  WS02003067           JUNCTION      0.00   723.83     0  03:10           0        8.25       0.076
  WS02004401           JUNCTION      0.00   724.17     0  03:08           0        8.41       0.186
  WS02004402           JUNCTION      0.00   724.23     0  03:08           0        8.39       0.179
  WS02004403           JUNCTION      0.00   724.27     0  03:08           0        8.38       0.168
  WS02004404           JUNCTION      0.16   724.47     0  03:09     0.00457        8.37       0.127
  WS02004406           JUNCTION      0.00   724.52     0  03:09           0        8.34       0.321
  WS02004409           JUNCTION      0.00   724.50     0  03:09           0        8.31       0.103
  WS02004410           JUNCTION      0.00   724.24     0  03:09           0         8.3       0.124
  WS02004411           JUNCTION      0.00   724.04     0  03:09           0        8.29       0.134
  WS02004412           JUNCTION      0.00   723.88     0  03:10           0        8.28       0.156
  WS02004413           JUNCTION      0.00   723.82     0  03:10           0        8.27       0.248
  WS02004405           JUNCTION      0.04   724.51     0  03:09     0.00107        8.36       0.191
  WS02006109           JUNCTION      1.23   717.63     0  03:07      0.0347        8.43       0.202
  WS02006110           JUNCTION      0.00   717.64     0  03:07           0        8.41       0.208
  WS02006111           JUNCTION      0.00   717.36     0  03:07           0        8.39       0.034
  WS02006112           JUNCTION     16.72   724.38     0  03:07      0.0747        8.46       0.296
  WS02006113           JUNCTION      0.00   717.69     0  03:07           0        8.39       0.087
  WS02006115           JUNCTION      0.00   724.38     0  03:07           0        8.43       0.163
  WS02006116           JUNCTION      0.00   724.02     0  03:08           0        8.42       0.141
  WS02006230           JUNCTION     10.28   521.17     0  03:44        0.29        6.26       0.160
  WS02006231           JUNCTION      0.00   510.90     0  03:44           0        5.98       0.118
  WS02006232           JUNCTION      0.00   511.06     0  03:44           0        5.99       0.248
  WS02006234           JUNCTION      0.00   511.13     0  03:44           0           6       0.103
  WS02006235           JUNCTION      0.00   511.57     0  03:44           0        6.09       0.146
  WS02006238           JUNCTION      0.00   382.72     0  06:10           0        2.65       0.128
  WS02006240           JUNCTION      0.00   384.06     0  06:10           0        2.59       0.394
  WS02006242           JUNCTION      0.00   384.41     0  06:10           0        2.56       0.500
  WS02006243           JUNCTION      0.00   384.27     0  06:10           0        2.54       0.142
  WS02006245           JUNCTION      0.00   384.40     0  06:10           0        2.54       0.524
  WS02006247           JUNCTION      0.00   386.34     0  06:03           0        2.54       0.262
  WS02006248           JUNCTION      0.00   390.50     0  06:03           0        2.54       0.139
  WS02006249           JUNCTION      0.00   450.61     0  03:30           0        2.63       0.413
  WS02006239           JUNCTION      0.00   383.26     0  06:10           0        2.62      -0.008
  WS02006251           JUNCTION      0.08   435.64     0  03:30     0.00217        2.67       0.305
  WS02006252           JUNCTION      0.00   400.00     0  03:30           0        2.22       0.019
  WS02006253           JUNCTION      1.99   125.14     0  03:29     0.00928       0.451       0.840
  WS02006256           JUNCTION      0.00   983.00     0  02:10           0        9.73       0.015
  WS02004138           JUNCTION      0.00   380.00     0  00:00           0         9.8       0.065
  WS02004139           JUNCTION      0.32   394.45     0  00:00     0.00905        9.81       0.458
  WS02004407           JUNCTION      0.00   724.54     0  03:09           0        8.32       0.049
  WS02006228           JUNCTION      0.00   716.39     0  03:07           0        8.41       0.150
  WS02006229           JUNCTION      0.00   717.36     0  03:07           0        8.42       0.145
  WS02006280           JUNCTION      0.00   413.62     0  03:02           0        2.17       0.003
  WS02006284           JUNCTION      0.10   413.57     0  03:02      0.0027        2.17       0.040
  WS02006287           JUNCTION      0.00   413.22     0  03:01           0        2.17       0.034
  WSF200               JUNCTION      0.00   723.93     0  03:10           0        8.24       0.026
  HS02004901           JUNCTION     20.36    20.36     0  03:01      0.0901      0.0904       1.991
  HS02004881           JUNCTION      7.95    84.19     0  03:01      0.0378        0.41       0.107
  HS02004876           JUNCTION     14.96    76.75     0  03:01      0.0728       0.373       0.148
  HS02004870           JUNCTION     14.89    62.15     0  03:01      0.0716         0.3       0.037
  HS02004862           JUNCTION     15.28    47.68     0  03:01      0.0788       0.229       0.077
  HS02004856           JUNCTION     11.18    32.72     0  03:01      0.0539       0.152       0.963
  HS02004852           JUNCTION      0.00    21.94     0  03:01           0      0.0979       0.059
  HS02004848           JUNCTION     34.61    34.61     0  03:01       0.174       0.174       0.029
  HS02004842           JUNCTION      0.00    12.41     0  03:01           0      0.0895      17.000
  HS02004837           JUNCTION     31.84    43.95     0  03:01       0.303        0.38       0.214
  HS02004830           JUNCTION      0.15    43.86     0  03:01     0.00423        0.37       0.334
  HS02004824           JUNCTION     42.39    85.90     0  03:01       0.225       0.594       0.091
  HS02004817           JUNCTION      0.60    86.29     0  03:01      0.0169        0.61       2.809
  HS02004807           JUNCTION     27.35   112.31     0  03:01       0.131       0.725       0.605
  HS02004802           JUNCTION      0.00   111.37     0  03:01           0       0.723       0.549
  HS02004799           JUNCTION     22.08   258.93     0  03:01       0.107        1.24       0.223
  HS02004792           JUNCTION    102.90   237.99     0  03:01        0.47        1.14       0.036
  HS02004788           JUNCTION     34.16   135.93     0  03:01       0.199       0.669       0.058
  HS02004785           JUNCTION      0.15   103.53     0  03:01     0.00423       0.471       0.106
  HS02004777           JUNCTION      0.03   104.16     0  03:01    0.000846       0.472       1.115
  HS02004770           JUNCTION     85.35   105.10     0  03:01       0.385       0.473       0.659
  HS02004480           JUNCTION      0.00   302.45     0  03:01           0        1.46       0.076
  HS02004479           JUNCTION      0.00    44.91     0  03:02           0       0.232       0.317
  HS02004478           JUNCTION      0.00   413.09     0  03:01           0        2.17       0.014
  YS02001745           JUNCTION    336.84   419.71     0  02:26        2.69         2.7       0.414
  YS02001748           JUNCTION      0.04   588.18     0  02:26     0.00127        2.69       0.775
  YS02001751           JUNCTION      0.01   346.95     0  02:17     0.00031        2.65       0.904
  YS02001754           JUNCTION      0.26   341.79     0  03:01     0.00733        2.64       0.950
  YS02001762           JUNCTION      0.00   290.67     0  02:38           0        1.89       1.135
  YS02001765           JUNCTION      0.00   291.48     0  02:38           0        1.89       1.307
  YS02001767           JUNCTION      0.54   291.46     0  02:38      0.0151        1.91       1.893
  YS02001770           JUNCTION    415.94   608.67     0  03:05        3.01        3.44       0.919
  YS02001774           JUNCTION      0.00   608.85     0  03:05           0        1.94       1.310
  YS02001779           JUNCTION      0.01   608.96     0  03:05    0.000141        1.91       0.817
  YS02001882           JUNCTION      0.00    40.40     0  02:36           0      0.0172      15.582
  YS02001884           JUNCTION      0.00    72.16     0  02:36           0      0.0547      12.869
  YS02001759           JUNCTION    399.49   572.12     0  02:39        2.78        4.21       0.546
  YS02001887           JUNCTION    494.68   494.85     0  03:00        3.19        3.23       0.268
  YS02001890           JUNCTION      0.00   495.26     0  03:01           0        3.18       0.294
  YS02001898           JUNCTION      0.00   495.04     0  03:01           0        3.16       0.101
  YS02001901           JUNCTION      0.00   495.48     0  03:01           0        3.16       0.221
  YS02001904           JUNCTION      0.00   495.37     0  03:01           0        3.16       0.204
  YS02001907           JUNCTION      0.00   942.84     0  03:01           0        7.02       0.346
  YS02001910           JUNCTION      0.00   451.61     0  03:00           0        3.87       0.309
  YS02001915           JUNCTION    296.36   451.39     0  03:00        2.25         3.9       0.158
  YS02001918           JUNCTION      0.00   211.03     0  02:46           0        1.66       0.084
  YS02001619           JUNCTION    290.53   290.53     0  03:01        2.24        2.24       0.548
  YS02001629           JUNCTION      0.00   202.46     0  02:17           0        1.69       1.748
  YS02001641           JUNCTION      0.00   398.35     0  02:34           0        4.25       0.502
  YS02001644           JUNCTION    321.01  1396.21     0  03:01        2.59        10.8       0.251
  YS02001652           JUNCTION      0.00   371.64     0  03:00           0        2.35       1.003
  YS02001655           JUNCTION      0.15   374.50     0  02:18     0.00434        2.37       1.043
  YS02001920           JUNCTION      2.87   210.61     0  02:46      0.0809        1.64       0.169
  YS02001923           JUNCTION      0.04   231.76     0  02:47     0.00106        1.56       0.050
  YS02001926           JUNCTION      0.05   186.87     0  02:46     0.00147        1.56       0.210
  YS02001929           JUNCTION    151.13   151.13     0  03:01        1.56        1.56       0.037
  YS02001658           JUNCTION      0.00   623.01     0  02:23           0        2.41       0.947
  YS02001661           JUNCTION      0.00   637.38     0  02:38           0         2.8      -0.427
  YS02001664           JUNCTION    361.21   361.21     0  03:01        2.38        2.79       0.248
  YS02001622           JUNCTION      0.00   291.10     0  03:00           0        2.22       1.452
  YS02001633           JUNCTION    326.74   397.22     0  02:35        2.66        4.31       0.751
  YS02001649           JUNCTION      0.00   826.48     0  02:35           0        6.16       0.609
  YS02001757           JUNCTION      0.00  1578.15     0  02:35           0        8.69       1.065
  YS02001895           JUNCTION      0.00   495.41     0  03:01           0        3.17       0.165
  YS02001625           JUNCTION      0.00   290.88     0  03:01           0        2.19       1.811
  YS02163301           JUNCTION      0.00   201.17     0  02:27           0        1.67       1.467
  YS02163601           JUNCTION      0.11   397.09     0  02:35      0.0031        4.27       0.711
  YS02164001           JUNCTION      0.00   397.00     0  02:34           0        4.25       0.477
  YS02001647           JUNCTION      0.00   710.01     0  03:06           0        5.41       0.531
  YSB1154              JUNCTION     26.18    26.18     0  03:01       0.129        0.13       1.131
  YSB6556              JUNCTION      0.00    25.83     0  03:01           0        0.13       0.969
  YSB1174              JUNCTION     20.52    20.52     0  03:01      0.0948      0.0952       1.369
  YSB1171              JUNCTION      0.00    45.30     0  03:01           0       0.231       2.821
  YS02006553           JUNCTION      0.00   703.35     0  03:31           0        6.57       0.237
  YS02006561           JUNCTION      0.00   982.30     0  02:59           0        9.44       0.007
  YS02006556           JUNCTION      0.00   703.55     0  03:31           0        6.57       0.174
  YS02006558           JUNCTION    433.40   983.08     0  03:00        2.93        9.47       0.054
  YS02001783           JUNCTION      0.00   982.31     0  03:01           0        9.44       0.024
  YS02001784           JUNCTION      1.06   983.22     0  03:00      0.0299        9.47       0.038
  YS02001786           JUNCTION      0.06   983.35     0  03:00     0.00159        9.47       0.037
  YS02001788           JUNCTION      0.07   983.68     0  03:00       0.002        9.47       0.024
  YS02001790           JUNCTION      0.15   983.70     0  03:00     0.00437        9.47       0.022
  YS02001791           JUNCTION      0.00   983.70     0  03:00           0        9.47       0.009
  YS02001793           JUNCTION      0.00   983.76     0  03:00           0        9.49      -0.040
  WSC                  OUTFALL       0.00  1127.97     0  03:13           0        18.5       0.000
  JK-storage           STORAGE       0.00  1118.45     0  02:03           0        9.65     -11.094
  CC-storage           STORAGE       0.00  1578.85     0  02:35           0        6.18       1.053
  XR-storage           STORAGE     844.76   844.76     0  03:01        11.8        12.4      -0.002
  
  
  **********************
  Node Surcharge Summary
  **********************
  
  Surcharging occurs when water rises above the top of the highest conduit.
  ---------------------------------------------------------------------
                                               Max. Height   Min. Depth
                                   Hours       Above Crown    Below Rim
  Node                 Type      Surcharged         Meters       Meters
  ---------------------------------------------------------------------
  WS02004401           JUNCTION        0.21          0.034        1.626
  WS02004402           JUNCTION        0.26          0.043        1.697
  WS02004403           JUNCTION        0.27          0.041        1.989
  WS02004404           JUNCTION        0.51          0.112        2.668
  WS02004406           JUNCTION        0.39          0.063        2.387
  WS02004405           JUNCTION        0.43          0.084        2.716
  WS02006109           JUNCTION        2.51          0.333        1.487
  WS02006110           JUNCTION        1.26          0.125        1.725
  WS02006112           JUNCTION        1.69          0.268        1.412
  WS02006230           JUNCTION        0.76          0.225        1.345
  WS02006231           JUNCTION        0.89          0.294        1.236
  WS02006232           JUNCTION        2.31          0.463        1.017
  WS02006234           JUNCTION        1.35          0.415        0.825
  WS02006235           JUNCTION        1.65          0.486        0.804
  WS02006238           JUNCTION        1.79          0.503        0.927
  WS02006240           JUNCTION        1.13          0.447        0.943
  WS02006242           JUNCTION        1.31          0.507        0.313
  WS02006243           JUNCTION        0.84          0.429        0.341
  WS02006245           JUNCTION        0.71          0.414        0.436
  WS02006247           JUNCTION        0.73          0.431        0.329
  WS02006248           JUNCTION        0.54          0.364        0.016
  WS02006249           JUNCTION        0.59          0.390        0.000
  WS02006239           JUNCTION        1.26          0.464        0.826
  WS02006251           JUNCTION        0.25          0.440        0.740
  WS02006252           JUNCTION        0.91          0.643        0.457
  WS02006253           JUNCTION        0.26          0.462        2.018
  WS02006256           JUNCTION        6.83          2.050        0.000
  WS02006228           JUNCTION        2.46          0.413        1.787
  YS02001748           JUNCTION        5.31          1.190        0.000
  YS02001751           JUNCTION        5.47          1.137        0.063
  YS02001754           JUNCTION        5.69          0.953        0.197
  YS02001762           JUNCTION        5.87          1.035        0.115
  YS02001765           JUNCTION        5.84          0.989        0.111
  YS02001767           JUNCTION        5.81          0.937        0.093
  YS02001770           JUNCTION        5.80          0.890        0.030
  YS02001774           JUNCTION        5.86          0.985        0.065
  YS02001779           JUNCTION        5.67          0.680        0.000
  YS02001882           JUNCTION        0.90          0.620        0.210
  YS02001884           JUNCTION        0.93          0.662        0.208
  YS02001759           JUNCTION        5.89          1.074        0.136
  YS02001887           JUNCTION        0.99          0.748        0.202
  YS02001890           JUNCTION        1.02          0.760        0.000
  YS02001898           JUNCTION        0.86          0.527        0.213
  YS02001901           JUNCTION        0.96          0.676        0.194
  YS02001904           JUNCTION        0.94          0.637        0.213
  YS02001907           JUNCTION        1.77          0.950        0.000
  YS02001910           JUNCTION        1.06          0.778        0.322
  YS02001915           JUNCTION        0.89          0.588        0.412
  YS02001918           JUNCTION        0.71          0.265        0.545
  YS02001619           JUNCTION        5.47          0.610        0.000
  YS02001629           JUNCTION        5.48          0.470        0.000
  YS02001641           JUNCTION        5.85          0.934        0.166
  YS02001644           JUNCTION        5.85          0.920        0.000
  YS02001652           JUNCTION        5.73          1.094        0.036
  YS02001655           JUNCTION        5.50          1.200        0.000
  YS02001920           JUNCTION        0.74          0.341        0.799
  YS02001658           JUNCTION        5.33          1.186        0.114
  YS02001661           JUNCTION        0.20          1.067        0.323
  YS02001622           JUNCTION        5.51          0.620        0.000
  YS02001633           JUNCTION        5.83          0.928        0.132
  YS02001649           JUNCTION        5.87          1.050        0.000
  YS02001757           JUNCTION        5.98          1.174        0.036
  YS02001895           JUNCTION        0.88          0.562        0.188
  YS02001625           JUNCTION        5.76          0.780        0.000
  YS02163301           JUNCTION        5.81          0.892        0.138
  YS02163601           JUNCTION        5.87          0.989        0.091
  YS02164001           JUNCTION        5.84          0.925        0.175
  YS02001647           JUNCTION        5.75          0.801        0.099
  YS02006553           JUNCTION        1.87          0.965        0.225
  YS02006561           JUNCTION        0.77          0.279        0.871
  YS02006556           JUNCTION        1.31          0.880        0.470
  YS02006558           JUNCTION        1.26          0.860        0.540
  YS02001783           JUNCTION        1.04          0.668        0.932
  YS02001784           JUNCTION        1.02          0.804        0.686
  YS02001786           JUNCTION        0.97          0.859        0.571
  YS02001788           JUNCTION        0.91          0.746        0.734
  YS02001790           JUNCTION        1.78          1.157        0.000
  YS02001791           JUNCTION        1.87          1.474        0.446
  YS02001793           JUNCTION        2.12          1.727        0.873
  
  
  *********************
  Node Flooding Summary
  *********************
  
  Flooding refers to all water that overflows a node, whether it ponds or not.
  --------------------------------------------------------------------------
                                                             Total   Maximum
                                 Maximum   Time of Max       Flood    Ponded
                        Hours       Rate    Occurrence      Volume     Depth
  Node                 Flooded       LPS   days hr:min    10^6 ltr    Meters
  --------------------------------------------------------------------------
  WS02006249              0.24    157.07      0  03:30       0.074     0.000
  WS02006256              3.61    792.40      0  03:10       6.215     0.000
  YS02001748              0.01    211.36      0  02:26       0.000     0.000
  YS02001779              2.96    608.93      0  03:05       1.886     0.000
  YS02001890              0.01      0.70      0  02:54       0.000     0.000
  YS02001907              0.58    393.62      0  03:01       0.442     0.000
  YS02001619              0.01     30.44      0  02:27       0.000     0.000
  YS02001629              0.01     18.17      0  02:27       0.000     0.000
  YS02001644              4.98   1395.91      0  03:01       9.277     0.000
  YS02001655              0.01    144.50      0  02:18       0.000     0.000
  YS02001622              0.01      8.55      0  02:27       0.000     0.000
  YS02001649              0.03     29.48      0  03:47       0.001     0.000
  YS02001625              1.20    235.98      0  03:01       0.465     0.000
  YS02001790              0.01    208.04      0  04:31       0.000     0.000
  JK-storage              0.88    815.02      0  02:40       0.984     0.000
  XR-storage              3.14    464.72      0  03:01       1.990     0.000
  
  
  **********************
  Storage Volume Summary
  **********************
  
  --------------------------------------------------------------------------------------------------
                         Average     Avg  Evap Exfil       Maximum     Max    Time of Max    Maximum
                          Volume    Pcnt  Pcnt  Pcnt        Volume    Pcnt     Occurrence    Outflow
  Storage Unit           1000 m3    Full  Loss  Loss       1000 m3    Full    days hr:min        LPS
  --------------------------------------------------------------------------------------------------
  JK-storage               0.146      50     0     0         0.291     100       0  02:34     983.00
  CC-storage               3.206      20     0     0         3.981      25       0  03:04     400.00
  XR-storage               0.789      85     0     0         0.926     100       0  02:50     380.00
  
  
  ***********************
  Outfall Loading Summary
  ***********************
  
  ---------------------------------------------------------------------------------------------------------------------------------
                         Flow       Avg       Max       Total         Total         Total         Total         Total         Total
                         Freq      Flow      Flow      Volume           COD            SS            TN            TP         NH4-N
  Outfall Node           Pcnt       LPS       LPS    10^6 ltr            kg            kg            kg            kg            kg
  ---------------------------------------------------------------------------------------------------------------------------------
  WSC                  100.00    732.59   1127.97      18.480      2216.706      3779.742       148.059        17.552        89.939
  ---------------------------------------------------------------------------------------------------------------------------------
  System               100.00    732.59   1127.97      18.480      2216.706      3779.742       148.059        17.552        89.939
  
  
  ********************
  Link Flow Summary
  ********************
  
  -----------------------------------------------------------------------------
                                 Maximum  Time of Max   Maximum    Max/    Max/
                                  |Flow|   Occurrence   |Veloc|    Full    Full
  Link                 Type          LPS  days hr:min     m/sec    Flow   Depth
  -----------------------------------------------------------------------------
  WS02003066WSF200     CONDUIT    723.93     0  03:10      2.88    0.12    0.27
  WS02006287WS02006284 CONDUIT    413.47     0  03:02      2.04    0.19    0.30
  WS02006284WS02006280 CONDUIT    413.62     0  03:02      2.28    0.17    0.28
  WS02006280WS02006229 CONDUIT    413.66     0  03:02      3.68    0.09    0.20
  WS02006229WS02006228 CONDUIT    716.39     0  03:07      1.43    2.37    1.00
  WS02006256WS02006235 CONDUIT    264.10     0  00:42      3.74    2.80    1.00
  WS02006253WS02006251 CONDUIT    108.38     0  03:29      0.60    0.32    1.00
  WS02006252WS02006251 CONDUIT    406.83     0  03:30      3.24    1.49    1.00
  WS02006251WS02006249 CONDUIT    450.61     0  03:30      1.17    1.30    1.00
  WS02006249WS02006248 CONDUIT    390.50     0  06:03      1.19    2.14    1.00
  WS02006248WS02006247 CONDUIT    386.34     0  06:03      1.17    0.84    1.00
  WS02006247WS02006245 CONDUIT    384.40     0  06:10      1.14    3.05    1.00
  WS02006245WS02006243 CONDUIT    384.27     0  06:10      1.18    1.14    1.00
  WS02006243WS02006242 CONDUIT    384.41     0  06:10      1.07    0.82    1.00
  WS02006242WS02006240 CONDUIT    384.06     0  06:10      1.01    1.53    1.00
  WS02006240WS02006239 CONDUIT    383.26     0  06:10      1.05    1.21    1.00
  WS02006239WS02006238 CONDUIT    382.72     0  06:10      0.99    1.22    1.00
  WS02006238WS02006235 CONDUIT    383.01     0  06:11      1.05    0.85    1.00
  WS02006235WS02006234 CONDUIT    511.13     0  03:44      1.33    5.39    1.00
  WS02006234WS02006232 CONDUIT    511.06     0  03:44      1.33    1.03    1.00
  WS02006232WS02006231 CONDUIT    510.90     0  03:44      1.33    1.07    1.00
  WS02006231WS02006230 CONDUIT    510.90     0  03:44      1.34    7.75    1.00
  WS02006230WS02006229 CONDUIT    521.17     0  03:44      1.35   11.60    1.00
  WS02006228WS02006109 CONDUIT    716.40     0  03:07      1.43    3.13    1.00
  WS02006116WS02004401 CONDUIT    724.17     0  03:08      0.92    1.00    1.00
  WS02006115WS02006116 CONDUIT    724.02     0  03:08      0.94    0.93    0.97
  WS02006113WS02006111 CONDUIT    717.36     0  03:07      2.58    0.86    0.61
  WS02006112WS02006115 CONDUIT    724.38     0  03:07      0.93    0.43    0.98
  WS02006111WS02006112 CONDUIT    716.74     0  03:08      1.70    0.34    0.78
  WS02006110WS02006113 CONDUIT    717.69     0  03:07      1.61    0.65    0.83
  WS02006109WS02006110 CONDUIT    717.64     0  03:07      1.43    1.38    1.00
  WS02004411WS02004412 CONDUIT    723.88     0  03:10      1.08    1.03    0.80
  WS02004401WS02004402 CONDUIT    724.23     0  03:08      0.92    0.87    1.00
  WS02004413WS02003067 CONDUIT    723.83     0  03:10      1.31    0.31    0.66
  WS02004412WS02004413 CONDUIT    723.82     0  03:10      1.00    0.48    0.87
  WS02004410WS02004411 CONDUIT    724.04     0  03:09      1.08    0.99    0.80
  WS02004409WS02004410 CONDUIT    724.24     0  03:09      1.08    0.94    0.80
  WS02004407WS02004409 CONDUIT    724.50     0  03:09      1.57    0.26    0.57
  WS02004406WS02004407 CONDUIT    724.54     0  03:09      1.29    0.32    0.67
  WS02004405WS02004406 CONDUIT    724.52     0  03:09      0.92    1.43    1.00
  WS02004404WS02004405 CONDUIT    724.47     0  03:09      1.03    7.10    1.00
  WS02004403WS02004404 CONDUIT    724.30     0  03:09      0.92    0.52    1.00
  WS02004402WS02004403 CONDUIT    724.27     0  03:08      0.93    1.04    1.00
  WS02004139WS02001211 CONDUIT    382.65     0  03:23      0.90    0.48    0.61
  WS02004138WS02004139 CONDUIT    394.13     0  00:00      3.62    0.08    0.45
  WS02003067WS02003066 CONDUIT    723.90     0  03:10      1.43    0.23    0.46
  WS02001213WS02003059 CONDUIT    397.85     0  03:22      0.89    0.66    0.82
  WS02001212WS02001213 CONDUIT    394.75     0  03:22      1.32    0.61    0.51
  WS02001211WS02001212 CONDUIT    392.49     0  03:23      0.78    0.30    0.68
  WS02003072WS02003073 CONDUIT   1126.16     0  03:13      1.84    2.43    0.53
  WS02003069WS02003072 CONDUIT   1126.12     0  03:12      1.72    0.54    0.56
  WS02003060WS02003069 CONDUIT   1125.86     0  03:12      1.95    0.44    0.51
  WS02003059WS02003060 CONDUIT    402.07     0  03:21      0.95    0.26    0.71
  HS02004901HS02004770 CONDUIT     20.53     0  03:01      0.07    0.08    0.42
  HS02004876HS02004881 CONDUIT     76.55     0  03:01      0.95    0.81    0.12
  HS02004870HS02004876 CONDUIT     61.90     0  03:01      0.65    0.04    0.14
  HS02004842HS02004848 CONDUIT     12.41     0  03:01      0.06    0.01    0.31
  HS02004837HS02004842 CONDUIT     12.98     0  03:02      0.42    0.01    0.32
  HS02004830HS02004837 CONDUIT     43.71     0  03:01      0.57    0.04    0.11
  HS02004824HS02004830 CONDUIT     43.67     0  03:01      0.59    0.06    0.11
  HS02004817HS02004824 CONDUIT     85.69     0  03:01      0.26    0.04    0.48
  HS02004770HS02004777 CONDUIT    104.13     0  03:01      0.35    0.19    0.43
  HS02004799HS02004480 CONDUIT    258.31     0  03:01      0.83    0.33    0.44
  HS02004792HS02004799 CONDUIT    237.04     0  03:01      0.95    0.15    0.36
  HS02004788HS02004792 CONDUIT    135.43     0  03:01      1.06    0.09    0.18
  HS02004785HS02004788 CONDUIT    103.22     0  03:02      0.71    0.78    0.21
  HS02004777HS02004785 CONDUIT    103.38     0  03:01      0.42    0.13    0.35
  HS02004480HS02004478 CONDUIT    302.30     0  03:01      1.26    1.27    0.34
  HS02004479HS02004480 CONDUIT     46.30     0  03:02      0.32    0.04    0.43
  HS02004862HS02004870 CONDUIT     47.43     0  03:01      0.66    0.05    0.10
  HS02004848HS02004852 CONDUIT     21.94     0  03:01      0.45    0.02    0.07
  HS02004856HS02004862 CONDUIT     32.47     0  03:01      0.48    0.03    0.10
  HS02004852HS02004856 CONDUIT     21.85     0  03:02      0.25    0.02    0.13
  HS02004802HS02004478 CONDUIT    111.52     0  03:02      0.45    0.10    0.36
  HS02004478WS02006287 CONDUIT    413.22     0  03:01      1.75    0.12    0.26
  HS02004817HS02004807 CONDUIT     86.14     0  03:01      0.19    0.05    0.63
  HS02004807HS02004802 CONDUIT    111.37     0  03:01      0.38    0.21    0.42
  YS02001759YS02001757 CONDUIT    572.58     0  02:39      0.73    0.41    1.00
  YS02001762YS02001759 CONDUIT    290.01     0  02:38      0.37    0.33    1.00
  YS02001765YS02001762 CONDUIT    290.67     0  02:38      0.37    0.27    1.00
  YS02001770YS02001767 CONDUIT    290.92     0  02:38      0.37    1.15    1.00
  YS02001774YS02001770 CONDUIT    608.85     0  03:05      0.78    0.39    1.00
  YS02001779YS02001774 CONDUIT    608.95     0  03:05      0.78    0.31    1.00
  YS02001649YS02001757 CONDUIT    828.46     0  02:35      1.05    0.50    1.00
  YS02001767YS02001765 CONDUIT    291.48     0  02:38      0.37    0.37    1.00
  YS02006561YS02001783 CONDUIT    982.31     0  03:01      2.15    0.51    1.00
  YS02001783YS02001784 CONDUIT    982.16     0  03:00      1.95    1.35    1.00
  YS02001784YS02001785 CONDUIT    983.29     0  03:00      1.96    2.29    1.00
  YS02001788YS02001790 CONDUIT    983.55     0  03:00      2.44    0.72    1.00
  YS02001790YS02001791 CONDUIT    983.70     0  03:00      2.88    1.07    1.00
  YS02001791YS02001793 CONDUIT    983.76     0  03:00      5.76    0.42    1.00
  YS02001910YS02001907 CONDUIT    451.55     0  03:00      0.57    0.25    1.00
  YS02001786YS02001788 CONDUIT    983.61     0  03:00      2.31    1.90    1.00
  YS02001915YS02001910 CONDUIT    451.61     0  03:00      0.59    0.22    1.00
  YS02001918YS02001915 CONDUIT    245.25     0  03:31      0.44    0.14    1.00
  YS02001923YS02001920 CONDUIT    207.74     0  02:46      0.71    0.09    1.00
  YS02001926YS02001923 CONDUIT    231.72     0  02:47      0.83    0.33    0.89
  YS02001929YS02001926 CONDUIT    186.82     0  02:46      0.89    0.09    0.79
  YS02001920YS02001918 CONDUIT    211.03     0  02:46      0.70    0.20    1.00
  YS02001629YS02163301 CONDUIT    201.17     0  02:27      0.26    0.25    1.00
  YS02001619YS02001622 CONDUIT    291.10     0  03:00      0.61    0.43    1.00
  YS02001622YS02001625 CONDUIT    290.88     0  03:01      0.37    0.16    1.00
  YS02001625YS02001629 CONDUIT    202.46     0  02:17      0.26    0.10    1.00
  YS02163301YS02001633 CONDUIT    201.88     0  02:25      0.26    0.19    1.00
  YS02163601YS02164001 CONDUIT    397.00     0  02:34      0.51    0.35    1.00
  YS02164001YS02001641 CONDUIT    398.35     0  02:34      0.51    0.54    1.00
  YS02001641YS02001644 CONDUIT    398.72     0  02:34      0.51    1.29    1.00
  YS02001647YS02001649 CONDUIT    710.01     0  03:06      0.90    0.37    1.00
  YS02006553YS02006556 CONDUIT    703.55     0  03:31      0.90    0.60    1.00
  YS02006556YS02006558 CONDUIT    704.17     0  03:31      0.90    0.56    1.00
  YSB6556YSB1171       CONDUIT     25.76     0  03:03      0.09    0.03    0.70
  YS02001907YS02006553 CONDUIT    703.35     0  03:31      0.78    0.83    1.00
  YS02006558YS02006561 CONDUIT    982.30     0  02:59      3.47    2.17    1.00
  YS02001633YS02163601 CONDUIT    396.98     0  02:35      0.51    0.42    1.00
  YS02001644YS02001647 CONDUIT    710.08     0  03:06      0.90    0.42    1.00
  YS02001745YS02001748 CONDUIT    588.13     0  02:26      1.47    0.23    0.96
  YS02001748YS02001751 CONDUIT    346.94     0  02:17      1.06    0.18    1.00
  YS02001751YS02001754 CONDUIT    341.53     0  03:01      0.92    0.16    1.00
  YS02001754YS02001757 CONDUIT    341.69     0  03:01      0.44    0.14    1.00
  YS02001882YS02001884 CONDUIT     40.40     0  02:36      0.13    0.05    1.00
  YS02001884YS02001887 CONDUIT     72.16     0  02:36      0.09    0.10    1.00
  YS02001890YS02001895 CONDUIT    495.41     0  03:01      0.63    0.23    1.00
  YS02001895YS02001898 CONDUIT    495.04     0  03:01      0.63    0.86    1.00
  YS02001898YS02001901 CONDUIT    495.48     0  03:01      0.63    0.32    1.00
  YS02001901YS02001904 CONDUIT    495.37     0  03:01      0.63    0.77    1.00
  YS02001904YS02001907 CONDUIT    495.54     0  03:01      0.63    0.17    1.00
  YS02001887YS02001890 CONDUIT    495.26     0  03:01      0.63    0.85    1.00
  YS02001652YS02001649 CONDUIT    372.38     0  03:00      0.63    0.18    1.00
  YS02001655YS02001652 CONDUIT    371.64     0  03:00      0.98    0.18    1.00
  YS02001658YS02001655 CONDUIT    374.35     0  02:18      1.22    0.16    1.00
  YS02001661YS02001658 CONDUIT    623.01     0  02:23      1.55    0.24    1.00
  YS02001664YS02001661 CONDUIT    637.38     0  02:38      1.43    0.20    0.77
  YSB1154YSB6556       CONDUIT     25.83     0  03:01      0.17    0.05    0.59
  YSB1174YSB1171       CONDUIT     20.15     0  03:01      0.07    0.03    0.70
  YSB1171HS02004479    CONDUIT     44.91     0  03:02      0.54    0.03    0.55
  HS02004881HS02006253 CONDUIT     84.16     0  03:01      2.17    0.02    0.51
  YS02001793JiankangQianchi CONDUIT   1118.45     0  02:03     17.63    0.09    1.00
  YS02001757CaochengTiaoxuchi CONDUIT   1578.85     0  02:35      2.02    0.69    1.00
  WSF200WS02003060     CONDUIT    724.01     0  03:11      1.85    0.16    0.39
  1                    CONDUIT   1127.97     0  03:13      3.44    0.39    0.44
  CC-Pump-1            PUMP       200.00     0  03:30              1.00
  CC-Pump-2            PUMP       200.00     0  03:30              1.00
  JK-Pump-1            PUMP       300.00     0  02:00              1.00
  JK-Pump-2            PUMP       683.00     0  02:10              1.00
  XR-Pump-1            PUMP        95.00     0  00:00              1.00
  XR-Pump-2            PUMP        95.00     0  00:00              1.00
  XR-Pump-3            PUMP        95.00     0  00:00              1.00
  XR-Pump-4            PUMP        95.00     0  00:00              1.00
  
  
  ***************************
  Flow Classification Summary
  ***************************
  
  -------------------------------------------------------------------------------------
                      Adjusted    ---------- Fraction of Time in Flow Class ---------- 
                       /Actual         Up    Down  Sub   Sup   Up    Down  Norm  Inlet 
  Conduit               Length    Dry  Dry   Dry   Crit  Crit  Crit  Crit  Ltd   Ctrl  
  -------------------------------------------------------------------------------------
  WS02003066WSF200        1.00   0.01  0.05  0.00  0.00  0.93  0.00  0.00  0.56  0.00
  WS02006287WS02006284    1.00   0.03  0.02  0.00  0.58  0.37  0.00  0.00  0.62  0.00
  WS02006284WS02006280    1.00   0.04  0.00  0.00  0.00  0.00  0.00  0.96  0.00  0.00
  WS02006280WS02006229    1.00   0.04  0.00  0.00  0.00  0.00  0.00  0.96  0.00  0.00
  WS02006229WS02006228    1.00   0.00  0.00  0.00  1.00  0.00  0.00  0.00  0.00  0.00
  WS02006256WS02006235    1.00   0.02  0.00  0.00  0.98  0.00  0.00  0.00  0.00  0.00
  WS02006253WS02006251    1.00   0.01  0.02  0.00  0.96  0.00  0.01  0.00  0.00  0.00
  WS02006252WS02006251    1.00   0.22  0.00  0.00  0.05  0.01  0.72  0.00  0.00  0.00
  WS02006251WS02006249    1.00   0.00  0.00  0.00  1.00  0.00  0.00  0.00  0.33  0.00
  WS02006249WS02006248    1.00   0.00  0.00  0.00  0.88  0.00  0.11  0.00  0.00  0.00
  WS02006248WS02006247    1.00   0.01  0.00  0.00  0.98  0.00  0.00  0.01  0.17  0.00
  WS02006247WS02006245    1.00   0.01  0.00  0.00  0.97  0.00  0.00  0.03  0.00  0.00
  WS02006245WS02006243    1.00   0.01  0.00  0.00  0.94  0.00  0.00  0.05  0.01  0.00
  WS02006243WS02006242    1.00   0.01  0.00  0.00  0.97  0.00  0.00  0.01  0.16  0.00
  WS02006242WS02006240    1.00   0.01  0.01  0.00  0.98  0.00  0.00  0.00  0.00  0.00
  WS02006240WS02006239    1.00   0.02  0.00  0.00  0.95  0.00  0.00  0.03  0.01  0.00
  WS02006239WS02006238    1.00   0.02  0.00  0.00  0.98  0.00  0.00  0.00  0.05  0.00
  WS02006238WS02006235    1.00   0.02  0.00  0.00  0.98  0.00  0.00  0.00  0.00  0.00
  WS02006235WS02006234    1.00   0.02  0.00  0.00  0.96  0.00  0.02  0.00  0.00  0.00
  WS02006234WS02006232    1.00   0.02  0.00  0.00  0.98  0.00  0.00  0.00  0.01  0.00
  WS02006232WS02006231    1.00   0.02  0.00  0.00  0.97  0.00  0.00  0.00  0.00  0.00
  WS02006231WS02006230    1.00   0.02  0.00  0.00  0.58  0.00  0.39  0.00  0.00  0.00
  WS02006230WS02006229    1.00   0.00  0.00  0.00  0.99  0.00  0.00  0.01  0.00  0.00
  WS02006228WS02006109    1.00   0.00  0.00  0.00  1.00  0.00  0.00  0.00  0.00  0.00
  WS02006116WS02004401    1.00   0.03  0.00  0.00  0.97  0.00  0.00  0.00  0.00  0.00
  WS02006115WS02006116    1.00   0.03  0.00  0.00  0.97  0.00  0.00  0.00  0.00  0.00
  WS02006113WS02006111    1.00   0.02  0.00  0.00  0.01  0.97  0.00  0.00  0.21  0.00
  WS02006112WS02006115    1.00   0.02  0.01  0.00  0.97  0.00  0.00  0.00  0.00  0.00
  WS02006111WS02006112    1.00   0.02  0.00  0.00  0.98  0.00  0.00  0.00  0.86  0.00
  WS02006110WS02006113    1.00   0.00  0.01  0.00  0.98  0.00  0.00  0.00  0.00  0.00
  WS02006109WS02006110    1.00   0.00  0.00  0.00  0.99  0.00  0.00  0.00  0.00  0.00
  WS02004411WS02004412    1.00   0.04  0.00  0.00  0.96  0.00  0.00  0.00  0.00  0.00
  WS02004401WS02004402    1.00   0.03  0.00  0.00  0.97  0.00  0.00  0.00  0.00  0.00
  WS02004413WS02003067    1.00   0.04  0.01  0.00  0.00  0.00  0.94  0.00  0.00  0.00
  WS02004412WS02004413    1.00   0.04  0.00  0.00  0.96  0.00  0.00  0.00  0.01  0.00
  WS02004410WS02004411    1.00   0.04  0.00  0.00  0.96  0.00  0.00  0.00  0.01  0.00
  WS02004409WS02004410    1.00   0.04  0.00  0.00  0.96  0.00  0.00  0.00  0.01  0.00
  WS02004407WS02004409    1.00   0.04  0.00  0.00  0.96  0.00  0.00  0.00  0.86  0.00
  WS02004406WS02004407    1.00   0.00  0.04  0.00  0.96  0.00  0.00  0.00  0.00  0.00
  WS02004405WS02004406    1.00   0.00  0.00  0.00  1.00  0.00  0.00  0.00  0.04  0.00
  WS02004404WS02004405    1.00   0.00  0.00  0.00  1.00  0.00  0.00  0.00  0.00  0.00
  WS02004403WS02004404    1.00   0.00  0.03  0.00  0.97  0.00  0.00  0.00  0.00  0.00
  WS02004402WS02004403    1.00   0.03  0.00  0.00  0.97  0.00  0.00  0.00  0.00  0.00
  WS02004139WS02001211    1.00   0.00  0.00  0.00  1.00  0.00  0.00  0.00  0.00  0.00
  WS02004138WS02004139    1.00   0.00  0.00  0.00  1.00  0.00  0.00  0.00  1.00  0.00
  WS02003067WS02003066    1.00   0.06  0.01  0.00  0.94  0.00  0.00  0.00  0.00  0.00
  WS02001213WS02003059    1.00   0.00  0.00  0.00  1.00  0.00  0.00  0.00  0.00  0.00
  WS02001212WS02001213    1.00   0.00  0.00  0.00  0.92  0.00  0.08  0.00  0.00  0.00
  WS02001211WS02001212    1.00   0.00  0.00  0.00  1.00  0.00  0.00  0.00  0.00  0.00
  WS02003072WS02003073    1.00   0.00  0.00  0.00  0.00  0.00  0.00  1.00  0.00  0.00
  WS02003069WS02003072    1.00   0.00  0.00  0.00  1.00  0.00  0.00  0.00  0.09  0.00
  WS02003060WS02003069    1.00   0.00  0.00  0.00  0.99  0.01  0.00  0.00  0.07  0.00
  WS02003059WS02003060    1.00   0.00  0.00  0.00  1.00  0.00  0.00  0.00  0.00  0.00
  HS02004901HS02004770    1.00   0.04  0.00  0.00  0.96  0.00  0.00  0.00  0.00  0.00
  HS02004876HS02004881    1.00   0.01  0.00  0.00  0.92  0.07  0.00  0.00  0.00  0.00
  HS02004870HS02004876    1.00   0.00  0.00  0.00  1.00  0.00  0.00  0.00  0.95  0.00
  HS02004842HS02004848    1.00   0.00  0.04  0.00  0.96  0.00  0.00  0.00  0.55  0.00
  HS02004837HS02004842    1.00   0.00  0.00  0.00  1.00  0.00  0.00  0.00  0.11  0.00
  HS02004830HS02004837    1.00   0.00  0.00  0.00  1.00  0.00  0.00  0.00  0.99  0.00
  HS02004824HS02004830    1.00   0.00  0.00  0.00  1.00  0.00  0.00  0.00  0.00  0.00
  HS02004817HS02004824    1.00   0.00  0.00  0.00  1.00  0.00  0.00  0.00  1.00  0.00
  HS02004770HS02004777    1.00   0.00  0.04  0.00  0.96  0.00  0.00  0.00  0.02  0.00
  HS02004799HS02004480    1.00   0.00  0.01  0.00  0.95  0.00  0.04  0.00  0.00  0.00
  HS02004792HS02004799    1.00   0.00  0.00  0.00  1.00  0.00  0.00  0.00  0.98  0.00
  HS02004788HS02004792    1.00   0.00  0.00  0.00  1.00  0.00  0.00  0.00  0.98  0.00
  HS02004785HS02004788    1.00   0.00  0.00  0.00  1.00  0.00  0.00  0.00  0.00  0.00
  HS02004777HS02004785    1.00   0.00  0.00  0.00  1.00  0.00  0.00  0.00  0.12  0.00
  HS02004480HS02004478    1.00   0.04  0.00  0.00  0.66  0.00  0.00  0.30  0.00  0.00
  HS02004479HS02004480    1.00   0.01  0.00  0.00  0.99  0.00  0.00  0.00  0.11  0.00
  HS02004862HS02004870    1.00   0.00  0.00  0.00  1.00  0.00  0.00  0.00  0.03  0.00
  HS02004848HS02004852    1.00   0.04  0.00  0.00  0.96  0.00  0.00  0.00  0.62  0.00
  HS02004856HS02004862    1.00   0.00  0.05  0.00  0.95  0.00  0.00  0.00  0.83  0.00
  HS02004852HS02004856    1.00   0.04  0.00  0.00  0.96  0.00  0.00  0.00  0.85  0.00
  HS02004802HS02004478    1.00   0.04  0.00  0.00  0.96  0.00  0.00  0.00  0.02  0.00
  HS02004478WS02006287    1.00   0.05  0.00  0.00  0.73  0.22  0.00  0.00  0.64  0.00
  HS02004817HS02004807    1.00   0.00  0.04  0.00  0.96  0.00  0.00  0.00  0.01  0.00
  HS02004807HS02004802    1.00   0.04  0.00  0.00  0.96  0.00  0.00  0.00  0.00  0.00
  YS02001759YS02001757    1.00   0.00  0.00  0.00  1.00  0.00  0.00  0.00  0.16  0.00
  YS02001762YS02001759    1.00   0.00  0.00  0.00  1.00  0.00  0.00  0.00  0.03  0.00
  YS02001765YS02001762    1.00   0.00  0.00  0.00  1.00  0.00  0.00  0.00  0.13  0.00
  YS02001770YS02001767    1.00   0.00  0.00  0.00  1.00  0.00  0.00  0.00  0.00  0.00
  YS02001774YS02001770    1.00   0.00  0.04  0.00  0.96  0.00  0.00  0.00  0.02  0.00
  YS02001779YS02001774    1.00   0.00  0.00  0.00  1.00  0.00  0.00  0.00  0.18  0.00
  YS02001649YS02001757    1.00   0.00  0.00  0.00  1.00  0.00  0.00  0.00  0.16  0.00
  YS02001767YS02001765    1.00   0.00  0.00  0.00  1.00  0.00  0.00  0.00  0.00  0.00
  YS02006561YS02001783    1.00   0.05  0.00  0.00  0.36  0.58  0.00  0.00  0.48  0.00
  YS02001783YS02001784    1.00   0.00  0.05  0.00  0.95  0.00  0.00  0.00  0.01  0.00
  YS02001784YS02001785    1.00   0.00  0.00  0.00  1.00  0.00  0.00  0.00  0.17  0.00
  YS02001788YS02001790    1.00   0.00  0.00  0.00  0.40  0.60  0.00  0.00  0.38  0.00
  YS02001790YS02001791    1.00   0.00  0.00  0.00  0.35  0.65  0.00  0.00  0.48  0.00
  YS02001791YS02001793    1.00   0.00  0.00  0.00  0.38  0.62  0.00  0.00  0.03  0.00
  YS02001910YS02001907    1.00   0.00  0.00  0.00  0.99  0.00  0.00  0.01  0.12  0.00
  YS02001786YS02001788    1.00   0.00  0.00  0.00  0.39  0.61  0.00  0.00  0.00  0.00
  YS02001915YS02001910    1.00   0.00  0.00  0.00  0.99  0.01  0.00  0.00  0.15  0.00
  YS02001918YS02001915    1.00   0.00  0.00  0.00  0.99  0.00  0.00  0.00  0.55  0.00
  YS02001923YS02001920    1.00   0.00  0.00  0.00  1.00  0.00  0.00  0.00  0.84  0.00
  YS02001926YS02001923    1.00   0.00  0.02  0.00  0.15  0.00  0.83  0.00  0.00  0.00
  YS02001929YS02001926    1.00   0.00  0.04  0.00  0.96  0.00  0.00  0.00  0.77  0.00
  YS02001920YS02001918    1.00   0.00  0.00  0.00  1.00  0.00  0.00  0.00  0.00  0.00
  YS02001629YS02163301    1.00   0.04  0.00  0.00  0.95  0.00  0.00  0.00  0.00  0.00
  YS02001619YS02001622    1.00   0.04  0.00  0.00  0.96  0.00  0.00  0.00  0.00  0.00
  YS02001622YS02001625    1.00   0.04  0.00  0.00  0.96  0.00  0.00  0.00  0.04  0.00
  YS02001625YS02001629    1.00   0.04  0.02  0.00  0.93  0.00  0.02  0.00  0.00  0.00
  YS02163301YS02001633    1.00   0.00  0.04  0.00  0.96  0.00  0.00  0.00  0.00  0.00
  YS02163601YS02164001    1.00   0.00  0.02  0.00  0.98  0.00  0.00  0.00  0.00  0.00
  YS02164001YS02001641    1.00   0.00  0.02  0.00  0.98  0.00  0.00  0.00  0.06  0.00
  YS02001641YS02001644    1.00   0.00  0.00  0.00  1.00  0.00  0.00  0.00  0.00  0.00
  YS02001647YS02001649    1.00   0.00  0.05  0.00  0.95  0.00  0.00  0.00  0.01  0.00
  YS02006553YS02006556    1.00   0.00  0.00  0.00  1.00  0.00  0.00  0.00  0.03  0.00
  YS02006556YS02006558    1.00   0.00  0.00  0.00  1.00  0.00  0.00  0.00  0.00  0.00
  YSB6556YSB1171          1.00   0.01  0.03  0.00  0.96  0.00  0.00  0.00  0.00  0.00
  YS02001907YS02006553    1.00   0.00  0.01  0.00  0.99  0.00  0.00  0.00  0.00  0.00
  YS02006558YS02006561    1.00   0.05  0.00  0.00  0.15  0.79  0.00  0.00  0.48  0.00
  YS02001633YS02163601    1.00   0.00  0.00  0.00  1.00  0.00  0.00  0.00  0.15  0.00
  YS02001644YS02001647    1.00   0.00  0.05  0.00  0.95  0.00  0.00  0.00  0.00  0.00
  YS02001745YS02001748    1.00   0.00  0.00  0.00  0.90  0.01  0.00  0.09  0.04  0.00
  YS02001748YS02001751    1.00   0.00  0.00  0.00  0.97  0.03  0.00  0.00  0.15  0.00
  YS02001751YS02001754    1.00   0.00  0.00  0.00  0.94  0.00  0.00  0.06  0.02  0.00
  YS02001754YS02001757    1.00   0.00  0.00  0.00  1.00  0.00  0.00  0.00  0.18  0.00
  YS02001882YS02001884    1.00   0.04  0.00  0.00  0.95  0.00  0.00  0.00  0.00  0.00
  YS02001884YS02001887    1.00   0.02  0.02  0.00  0.97  0.00  0.00  0.00  0.00  0.00
  YS02001890YS02001895    1.00   0.00  0.05  0.00  0.95  0.00  0.00  0.00  0.00  0.00
  YS02001895YS02001898    1.00   0.05  0.00  0.00  0.94  0.00  0.01  0.00  0.00  0.00
  YS02001898YS02001901    1.00   0.05  0.00  0.00  0.95  0.00  0.00  0.00  0.01  0.00
  YS02001901YS02001904    1.00   0.05  0.00  0.00  0.95  0.00  0.00  0.00  0.00  0.00
  YS02001904YS02001907    1.00   0.00  0.05  0.00  0.95  0.00  0.00  0.00  0.00  0.00
  YS02001887YS02001890    1.00   0.00  0.00  0.00  0.99  0.00  0.01  0.00  0.00  0.00
  YS02001652YS02001649    1.00   0.00  0.00  0.00  1.00  0.00  0.00  0.00  0.16  0.00
  YS02001655YS02001652    1.00   0.00  0.00  0.00  0.94  0.00  0.00  0.06  0.02  0.00
  YS02001658YS02001655    1.00   0.00  0.04  0.00  0.93  0.03  0.00  0.00  0.08  0.00
  YS02001661YS02001658    1.00   0.04  0.00  0.00  0.90  0.05  0.00  0.00  0.08  0.00
  YS02001664YS02001661    1.00   0.04  0.00  0.00  0.91  0.05  0.00  0.00  0.19  0.00
  YSB1154YSB6556          1.00   0.04  0.00  0.00  0.96  0.00  0.00  0.00  0.01  0.00
  YSB1174YSB1171          1.00   0.01  0.01  0.00  0.97  0.00  0.00  0.00  0.00  0.00
  YSB1171HS02004479       1.00   0.01  0.00  0.00  0.99  0.00  0.00  0.00  0.10  0.00
  HS02004881HS02006253    1.00   0.01  0.00  0.00  0.49  0.03  0.00  0.47  0.32  0.00
  YS02001793JiankangQianchi    1.00   0.00  0.00  0.00  0.71  0.29  0.00  0.00  0.41  0.00
  YS02001757CaochengTiaoxuchi    1.00   0.00  0.07  0.00  0.93  0.00  0.00  0.00  0.00  0.00
  WSF200WS02003060        1.00   0.00  0.01  0.00  0.96  0.03  0.00  0.00  0.51  0.00
  1                       1.00   0.00  0.00  0.00  0.00  1.00  0.00  0.00  0.49  0.00
  
  
  *************************
  Conduit Surcharge Summary
  *************************
  
  ----------------------------------------------------------------------------
                                                           Hours        Hours 
                         --------- Hours Full --------   Above Full   Capacity
  Conduit                Both Ends  Upstream  Dnstream   Normal Flow   Limited
  ----------------------------------------------------------------------------
  WS02006229WS02006228        2.46      2.60      2.46      3.56         2.46
  WS02006256WS02006235        5.74      5.75      6.83      4.25         0.01
  WS02006253WS02006251        0.55      0.55      0.60      0.01         0.01
  WS02006252WS02006251        0.58      0.58      0.91      0.81         0.01
  WS02006251WS02006249        0.55      0.56      0.59      0.51         0.27
  WS02006249WS02006248        0.54      0.54      0.59      1.54         0.01
  WS02006248WS02006247        0.58      0.58      0.73      0.01         0.01
  WS02006247WS02006245        0.71      0.78      0.71      2.25         0.70
  WS02006245WS02006243        0.74      0.75      0.84      0.29         0.09
  WS02006243WS02006242        0.89      0.89      1.31      0.01         0.01
  WS02006242WS02006240        1.13      1.13      1.45      0.82         0.01
  WS02006240WS02006239        1.14      1.18      1.26      0.30         0.13
  WS02006239WS02006238        1.48      1.53      1.79      0.49         0.22
  WS02006238WS02006235        1.74      1.74      2.07      0.01         0.01
  WS02006235WS02006234        1.35      1.35      1.65      5.58         0.01
  WS02006234WS02006232        1.52      1.52      2.31      0.28         0.22
  WS02006232WS02006231        0.89      0.89      2.31      0.31         0.01
  WS02006231WS02006230        0.76      0.76      0.93      5.90         0.01
  WS02006230WS02006229        3.13      3.36      3.13      6.20         3.13
  WS02006228WS02006109        2.51      2.91      2.51      4.86         2.51
  WS02006116WS02004401        0.20      0.20      0.21      0.01         0.01
  WS02006112WS02006115        0.01      0.01      1.69      0.01         0.01
[...]
  YS02001765YS02001762        5.84      5.84      5.87      0.01         0.01
  YS02001770YS02001767        5.81      5.81      5.81      0.19         0.76
  YS02001774YS02001770        5.80      5.80      5.86      0.01         0.01
  YS02001779YS02001774        5.67      5.67      5.86      0.01         0.01
  YS02001649YS02001757        5.87      5.87      5.98      0.01         0.01
  YS02001767YS02001765        5.81      5.81      5.84      0.01         0.01
  YS02006561YS02001783        0.77      0.77      1.04      0.01         0.01
  YS02001783YS02001784        1.02      1.04      1.02      1.38         1.01
  YS02001784YS02001785        0.97      1.02      0.97      2.39         0.96
  YS02001788YS02001790        0.91      0.91      1.78      0.01         0.01
  YS02001790YS02001791        1.78      1.78      1.87      0.87         0.85
  YS02001791YS02001793        1.87      1.87      2.20      0.01         0.01
  YS02001910YS02001907        1.06      1.06      1.77      0.01         0.01
  YS02001786YS02001788        0.91      0.97      0.91      1.97         0.91
  YS02001915YS02001910        0.89      0.89      1.06      0.01         0.01
  YS02001918YS02001915        0.71      0.71      0.89      0.01         0.01
  YS02001923YS02001920        0.53      0.53      0.74      0.01         0.01
  YS02001920YS02001918        0.71      0.71      0.74      0.01         0.01
  YS02001629YS02163301        5.80      5.80      5.81      0.01         0.01
  YS02001619YS02001622        5.47      5.47      5.51      0.01         0.01
  YS02001622YS02001625        5.51      5.51      5.76      0.01         0.01
  YS02001625YS02001629        5.48      5.48      5.76      0.01         0.01
  YS02163301YS02001633        5.81      5.81      5.84      0.01         0.01
  YS02163601YS02164001        5.84      5.84      5.87      0.01         0.01
  YS02164001YS02001641        5.84      5.84      5.85      0.01         0.03
  YS02001641YS02001644        5.85      5.85      5.85      1.52         1.69
  YS02001647YS02001649        5.75      5.75      5.87      0.01         0.01
  YS02006553YS02006556        1.31      1.31      1.87      0.01         0.01
  YS02006556YS02006558        1.54      1.54      1.95      0.01         0.01
  YS02001907YS02006553        2.41      2.41      2.63      0.01         0.01
  YS02006558YS02006561        0.90      1.26      0.90      2.24         0.90
  YS02001633YS02163601        5.83      5.83      5.87      0.01         0.01
  YS02001644YS02001647        5.75      5.75      5.85      0.01         0.01
  YS02001745YS02001748        0.01      0.01      5.31      0.01         0.01
  YS02001748YS02001751        5.36      5.36      5.47      0.01         0.01
  YS02001751YS02001754        5.47      5.47      5.69      0.01         0.01
  YS02001754YS02001757        5.74      5.74      5.98      0.01         0.01
  YS02001882YS02001884        0.90      0.90      0.93      0.01         0.01
  YS02001884YS02001887        0.97      0.97      0.99      0.01         0.01
  YS02001890YS02001895        0.88      0.88      1.08      0.01         0.01
  YS02001895YS02001898        0.87      0.87      0.88      0.01         0.01
  YS02001898YS02001901        0.89      0.89      0.96      0.01         0.01
  YS02001901YS02001904        0.94      0.94      0.96      0.01         0.01
  YS02001904YS02001907        0.94      0.94      1.89      0.01         0.01
  YS02001887YS02001890        1.02      1.02      1.04      0.01         0.01
  YS02001652YS02001649        5.76      5.76      5.87      0.01         0.01
  YS02001655YS02001652        5.50      5.50      5.73      0.01         0.01
  YS02001658YS02001655        5.33      5.33      5.50      0.01         0.01
  YS02001661YS02001658        0.17      0.17      5.33      0.01         0.01
  YS02001664YS02001661        0.01      0.01      1.25      0.01         0.01
  HS02004881HS02006253        0.01      0.01      0.26      0.01         0.01
  YS02001793JiankangQianchi        2.12      2.12      4.68      0.01         0.01
  YS02001757CaochengTiaoxuchi        5.21      5.21      5.98      0.01         0.01
  
  
  ***************
  Pumping Summary
  ***************
  
  ---------------------------------------------------------------------------------------------------------
                                                  Min       Avg       Max     Total     Power    % Time Off
                        Percent   Number of      Flow      Flow      Flow    Volume     Usage    Pump Curve
  Pump                 Utilized   Start-Ups       LPS       LPS       LPS  10^6 ltr     Kw-hr    Low   High
  ---------------------------------------------------------------------------------------------------------
  CC-Pump-1               44.64           8      0.00    138.19    200.00     1.620      1.31    0.0    0.0
  CC-Pump-2               17.01           3      0.00    113.69    200.00     0.600      0.74    0.0    0.0
  JK-Pump-1               59.58           5      0.00    230.45    300.00     3.567     54.56    0.0    0.0
  JK-Pump-2               55.32           5      0.00    448.74    683.00     6.165     90.73    0.0   95.6
  XR-Pump-1               95.74           3      0.00     93.02     95.00     2.451     22.33    0.0    0.0
  XR-Pump-2               95.74           3      0.00     93.02     95.00     2.451     22.33    0.0    0.0
  XR-Pump-3               95.74           3      0.00     93.02     95.00     2.451     22.33    0.0    0.0
  XR-Pump-4               95.74           3      0.00     93.02     95.00     2.451     22.33    0.0    0.0
  
  
  ***************************
  Link Pollutant Load Summary
  ***************************
  
  ------------------------------------------------------------------------------------------
                                 COD            SS            TN            TP         NH4-N
  Link                            kg            kg            kg            kg            kg
  ------------------------------------------------------------------------------------------
  WS02003066WSF200           689.068      1270.730        18.868         1.690        10.035
  WS02006287WS02006284       268.008       498.098         9.346         0.943         5.214
  WS02006284WS02006280       268.492       498.874         9.393         0.949         5.243
  WS02006280WS02006229       268.460       498.812         9.391         0.948         5.242
  WS02006229WS02006228       681.020      1256.517        18.352         1.626         9.722
  WS02006256WS02006235       194.575       356.282         4.329         0.338         2.194
  WS02006253WS02006251        49.576        95.965         1.077         0.079         0.530
  WS02006252WS02006251       190.178       344.861         4.026         0.295         1.989
  WS02006251WS02006249       234.350       431.099         5.004         0.368         2.473
  WS02006249WS02006248       226.834       417.412         4.838         0.355         2.390
  WS02006248WS02006247       226.736       417.243         4.840         0.356         2.392
  WS02006247WS02006245       226.464       416.720         4.838         0.356         2.392
  WS02006245WS02006243       225.877       415.672         4.829         0.355         2.388
  WS02006243WS02006242       226.364       416.452         4.849         0.357         2.399
  WS02006242WS02006240       226.354       416.346         4.842         0.356         2.394
  WS02006240WS02006239       227.364       418.090         4.870         0.359         2.409
  WS02006239WS02006238       229.757       422.181         4.940         0.365         2.447
  WS02006238WS02006235       230.946       424.086         4.977         0.369         2.468
  WS02006235WS02006234       416.723       765.143         9.066         0.686         4.534
  WS02006234WS02006232       416.004       763.827         9.054         0.686         4.529
  WS02006232WS02006231       415.163       762.328         9.035         0.684         4.519
  WS02006231WS02006230       414.385       760.945         9.018         0.683         4.511
  WS02006230WS02006229       413.500       759.370         8.995         0.681         4.499
  WS02006228WS02006109       679.853      1254.448        18.315         1.623         9.702
  WS02006116WS02004401       691.061      1274.152        18.987         1.703        10.107
  WS02006115WS02006116       691.769      1275.365        19.024         1.708        10.129
  WS02006113WS02006111       685.067      1262.334        18.990         1.710        10.130
  WS02006112WS02006115       692.739      1277.040        19.073         1.713        10.158
  WS02006111WS02006112       684.480      1261.295        18.968         1.707        10.118
  WS02006110WS02006113       685.687      1263.419        19.017         1.713        10.146
  WS02006109WS02006110       687.202      1266.025        19.093         1.721        10.191
  WS02004411WS02004412       690.018      1272.356        18.928         1.697        10.071
  WS02004401WS02004402       690.355      1272.948        18.947         1.699        10.083
  WS02004413WS02003067       689.022      1270.651        18.868         1.690        10.036
  WS02004412WS02004413       689.801      1271.991        18.912         1.695        10.061
  WS02004410WS02004411       690.100      1272.490        18.936         1.698        10.077
  WS02004409WS02004410       690.278      1272.793        18.949         1.699        10.084
  WS02004407WS02004409       690.225      1272.692        18.951         1.700        10.086
  WS02004406WS02004407       689.981      1272.260        18.943         1.699        10.082
  WS02004405WS02004406       690.803      1273.611        19.010         1.707        10.123
  WS02004404WS02004405       690.435      1272.990        18.986         1.704        10.108
  WS02004403WS02004404       689.488      1271.483        18.892         1.692        10.050
  WS02004402WS02004403       689.937      1272.246        18.919         1.696        10.066
  WS02004139WS02001211      1386.400      2284.463       115.219        14.109        71.151
  WS02004138WS02004139      1392.869      2295.141       115.742        14.173        71.474
  WS02003067WS02003066       689.115      1270.816        18.870         1.690        10.036
  WS02001213WS02003059      1419.988      2337.503       118.651        14.541        73.306
  WS02001212WS02001213      1429.120      2352.495       119.416        14.635        73.779
  WS02001211WS02001212      1430.803      2355.235       119.563        14.653        73.870
  WS02003072WS02003073      2210.847      3770.492       147.468        17.477        89.567
  WS02003069WS02003072      2215.495      3778.126       147.854        17.525        89.806
  WS02003060WS02003069      2217.893      3782.129       148.036        17.547        89.918
  WS02003059WS02003060      1417.333      2333.087       118.445        14.516        73.180
  HS02004901HS02004770        10.269        19.475         0.195         0.015         0.091
  HS02004876HS02004881        37.312        72.566         0.842         0.062         0.416
  HS02004870HS02004876        28.156        54.618         0.677         0.051         0.338
  HS02004842HS02004848         5.466        10.276         0.115         0.008         0.053
  HS02004837HS02004842        10.074        17.585         0.584         0.067         0.348
  HS02004830HS02004837        65.639       112.703         4.557         0.546         2.785
  HS02004824HS02004830        66.389       113.905         4.629         0.555         2.830
  HS02004817HS02004824        88.204       156.969         5.083         0.584         3.051
  HS02004770HS02004777        39.291        75.456         0.819         0.055         0.377
  HS02004799HS02004480       131.390       245.326         3.680         0.335         1.932
  HS02004792HS02004799       119.071       220.629         3.497         0.327         1.853
  HS02004788HS02004792        68.389       126.840         2.388         0.235         1.309
  HS02004785HS02004788        40.727        77.747         0.969         0.074         0.471
  HS02004777HS02004785        40.055        76.656         0.909         0.067         0.434
  HS02004480HS02004478       165.920       312.527         4.243         0.374         2.195
  HS02004479HS02004480        38.140        72.963         0.884         0.079         0.462
  HS02004862HS02004870        21.013        40.110         0.536         0.043         0.270
  HS02004848HS02004852         8.057        15.278         0.167         0.011         0.077
  HS02004856HS02004862        14.070        27.336         0.284         0.019         0.133
  HS02004852HS02004856         8.063        15.288         0.167         0.011         0.077
  HS02004802HS02004478       102.880       186.870         5.163         0.576         3.055
  HS02004478WS02006287       268.212       498.443         9.363         0.945         5.224
  HS02004817HS02004807        86.885       154.852         4.957         0.568         2.973
  HS02004807HS02004802       103.108       187.229         5.195         0.580         3.075
  YS02001759YS02001757       314.170       570.349         6.324         0.439         3.093
  YS02001762YS02001759       161.605       296.104         3.428         0.242         1.698
  YS02001765YS02001762       162.032       297.437         3.460         0.245         1.717
  YS02001770YS02001767       161.354       297.539         3.257         0.215         1.582
  YS02001774YS02001770       199.997       382.932         3.880         0.256         1.875
  YS02001779YS02001774       199.469       381.857         3.975         0.270         1.940
  YS02001649YS02001757       344.905       616.959         7.013         0.483         3.382
  YS02001767YS02001765       162.662       298.978         3.491         0.248         1.734
  YS02006561YS02001783       936.112      1716.707        19.831         1.488         9.896
  YS02001783YS02001784       935.993      1716.516        19.826         1.488         9.894
  YS02001784YS02001785       943.310      1728.237        20.539         1.577        10.340
  YS02001788YS02001790       943.868      1729.132        20.610         1.586        10.385
  YS02001790YS02001791       944.861      1730.745        20.709         1.599        10.447
  YS02001791YS02001793       944.758      1730.556        20.705         1.598        10.445
  YS02001910YS02001907       330.165       599.334         8.230         0.642         4.251
  YS02001786YS02001788       943.493      1728.536        20.566         1.580        10.357
  YS02001915YS02001910       330.255       599.475         8.186         0.635         4.222
  YS02001918YS02001915       159.998       278.119         4.659         0.433         2.536
  YS02001923YS02001920       137.613       241.422         2.672         0.188         1.301
  YS02001926YS02001923       136.672       239.886         2.594         0.178         1.252
  YS02001929YS02001926       136.170       239.029         2.555         0.174         1.228
  YS02001920YS02001918       157.908       274.018         4.588         0.427         2.497
  YS02001629YS02163301       103.478       183.352         2.170         0.140         1.012
  YS02001619YS02001622       146.390       262.921         3.031         0.197         1.414
  YS02001622YS02001625       145.227       261.082         3.003         0.195         1.401
  YS02001625YS02001629       104.580       185.177         2.195         0.141         1.023
  YS02163301YS02001633       103.195       182.875         2.163         0.140         1.009
  YS02163601YS02164001       361.976       646.086         7.115         0.502         3.403
  YS02164001YS02001641       361.483       645.254         7.095         0.500         3.392
  YS02001641YS02001644       361.709       645.560         7.093         0.500         3.390
  YS02001647YS02001649       402.562       727.138         8.103         0.560         3.887
  YS02006553YS02006556       657.634      1200.377        14.233         1.095         7.178
  YS02006556YS02006558       657.566      1200.237        14.201         1.090         7.157
  YSB6556YSB1171              21.948        42.189         0.451         0.038         0.229
  YS02001907YS02006553       657.747      1200.612        14.247         1.096         7.187
  YS02006558YS02006561       936.101      1716.682        19.830         1.488         9.896
  YS02001633YS02163601       362.681       647.181         7.095         0.498         3.387
  YS02001644YS02001647       408.478       737.723         8.193         0.567         3.928
  YS02001745YS02001748       211.217       388.300         4.837         0.344         2.429
  YS02001748YS02001751       208.766       383.750         4.848         0.349         2.445
  YS02001751YS02001754       207.788       382.144         4.830         0.349         2.437
  YS02001754YS02001757       208.554       383.298         4.994         0.371         2.544
  YS02001882YS02001884         2.596         4.468         0.052         0.004         0.026
  YS02001884YS02001887         6.970        12.351         0.136         0.011         0.068
  YS02001890YS02001895       389.380       720.482         7.188         0.539         3.507
  YS02001895YS02001898       389.190       720.211         7.181         0.539         3.504
  YS02001898YS02001901       388.971       719.835         7.176         0.538         3.501
  YS02001901YS02001904       388.807       719.593         7.183         0.539         3.506
  YS02001904YS02001907       389.017       719.908         7.236         0.547         3.541
  YS02001887YS02001890       390.191       721.702         7.242         0.546         3.541
  YS02001652YS02001649       154.202       282.236         3.143         0.226         1.474
  YS02001655YS02001652       154.889       283.337         3.161         0.227         1.482
  YS02001658YS02001655       154.561       282.797         3.079         0.216         1.428
  YS02001661YS02001658       158.906       290.504         3.168         0.222         1.469
  YS02001664YS02001661       177.633       321.759         3.582         0.250         1.658
  YSB1154YSB6556              21.530        41.523         0.402         0.032         0.198
  YSB1174YSB1171              14.652        28.287         0.298         0.024         0.149
  YSB1171HS02004479           38.098        72.897         0.887         0.079         0.465
  HS02004881HS02006253        42.274        82.510         0.931         0.068         0.458
  YS02001793JiankangQianchi       948.002      1735.882        20.798         1.606        10.494
  YS02001757CaochengTiaoxuchi       512.311       922.168        10.904         0.790         5.381
  WSF200WS02003060           689.586      1271.626        18.896         1.693        10.052
  1                         2216.706      3779.742       148.059        17.552        89.939
  CC-Pump-1                  138.362       250.870         2.924         0.214         1.443
  CC-Pump-2                   51.668        93.745         1.092         0.080         0.539
  JK-Pump-1                  235.440       433.652         5.148         0.399         2.598
  JK-Pump-2                  472.015       878.336         9.846         0.740         4.907
  XR-Pump-1                  349.182       575.364        29.018         3.553        17.919
  XR-Pump-2                  349.182       575.364        29.018         3.553        17.919
  XR-Pump-3                  349.182       575.364        29.018         3.553        17.919
  XR-Pump-4                  349.182       575.364        29.018         3.553        17.919
  

  Analysis begun on:  Thu Jul 15 07:48:18 2021
  Analysis ended on:  Thu Jul 15 07:48:21 2021
  Total elapsed time: 00:00:03