
  EPA STORM WATER MANAGEMENT MODEL - VERSION 5.1 (Build 5.3.0.dev0)
  --------------------------------------------------------------

  WARNING 04: minimum elevation drop used for Conduit WS02004404WS02004405
  WARNING 03: negative offset ignored for Link YS02001904YS02001907
  
  *********************************************************
  NOTE: The summary statistics displayed in this report are
  based on results found at every computational time step,  
  not just on results from each reporting time step.
  *********************************************************
  
  ****************
  Analysis Options
  ****************
  Flow Units ............... LPS
  Process Models:
    Rainfall/Runoff ........ YES
    RDII ................... NO
    Snowmelt ............... NO
    Groundwater ............ NO
    Flow Routing ........... YES
    Ponding Allowed ........ NO
    Water Quality .......... YES
  Infiltration Method ...... HORTON
  Flow Routing Method ...... DYNWAVE
  Surcharge Method ......... EXTRAN
  Starting Date ............ 08/28/2015 08:00:00
  Ending Date .............. 08/28/2015 16:00:00
  Antecedent Dry Days ...... 8.0
  Report Time Step ......... 00:01:00
  Wet Time Step ............ 00:01:00
  Dry Time Step ............ 00:01:00
  Routing Time Step ........ 5.00 sec
  Variable Time Step ....... YES
  Maximum Trials ........... 8
  Number of Threads ........ 4
  Head Tolerance ........... 0.001500 m
  
  
  **************************        Volume         Depth
  Runoff Quantity Continuity     hectare-m            mm
  **************************     ---------       -------
  Total Precipitation ......         0.512         1.121
  Evaporation Loss .........         0.000         0.000
  Infiltration Loss ........         0.127         0.279
  Surface Runoff ...........         0.188         0.411
  Final Storage ............         0.197         0.431
  Continuity Error (%) .....        -0.023
  
  
  **************************           COD            SS            TN            TP         NH4-N
  Runoff Quality Continuity             kg            kg            kg            kg            kg
  **************************    ----------    ----------    ----------    ----------    ----------
  Initial Buildup ..........     41378.656     70582.865      1804.177       168.684      1032.807
  Surface Buildup ..........        14.367        12.145         4.224         0.397         2.512
  Wet Deposition ...........         0.000         0.000         0.000         0.000         0.000
  Sweeping Removal .........         0.000         0.000         0.000         0.000         0.000
  Infiltration Loss ........         1.188         1.689         0.030         0.002         0.014
  BMP Removal ..............         0.000         0.000         0.000         0.000         0.000
  Surface Runoff ...........        44.250        61.711         1.093         0.064         0.506
  Remaining Buildup ........     41347.571     70531.591      1807.277       169.015      1034.800
  Continuity Error (%) .....         0.000         0.000         0.000         0.000         0.000
  
  
  **************************        Volume        Volume
  Flow Routing Continuity        hectare-m      10^6 ltr
  **************************     ---------     ---------
  Dry Weather Inflow .......         0.630         6.296
  Wet Weather Inflow .......         0.188         1.877
  Groundwater Inflow .......         0.000         0.000
  RDII Inflow ..............         0.000         0.000
  External Inflow ..........         0.105         1.045
  External Outflow .........         0.870         8.703
  Flooding Loss ............         0.020         0.201
  Evaporation Loss .........         0.000         0.000
  Exfiltration Loss ........         0.000         0.000
  Initial Stored Volume ....         0.076         0.761
  Final Stored Volume ......         0.170         1.700
  Continuity Error (%) .....        -6.266
  
  
  **************************           COD            SS            TN            TP         NH4-N
  Quality Routing Continuity            kg            kg            kg            kg            kg
  **************************    ----------    ----------    ----------    ----------    ----------
  Dry Weather Inflow .......      1573.993      2518.389       151.103        18.888        94.440
  Wet Weather Inflow .......        44.221        61.674         1.092         0.064         0.506
  Groundwater Inflow .......         0.000         0.000         0.000         0.000         0.000
  RDII Inflow ..............         0.000         0.000         0.000         0.000         0.000
  External Inflow ..........       187.321       299.713        17.983         2.248        11.239
  External Outflow .........      1541.027      2463.864       146.940        18.346        91.781
  Flooding Loss ............         4.635         7.085         0.329         0.039         0.200
  Exfiltration Loss ........         0.000         0.000         0.000         0.000         0.000
  Mass Reacted .............         0.000         0.000         0.000         0.000         0.000
  Initial Stored Mass ......         0.000         0.000         0.000         0.000         0.000
  Final Stored Mass ........        67.552       102.034         4.750         0.552         2.870
  Continuity Error (%) .....        10.652        10.653        10.671        10.674        10.673
  
  
  *************************
  Highest Continuity Errors
  *************************
  Node HS02004842 (58.26%)
  Node YS02001774 (57.89%)
  Node YS02001884 (50.88%)
  Node HS02004901 (23.01%)
  Node YSB1171 (22.09%)
  
  
  ***************************
  Time-Step Critical Elements
  ***************************
  Link WS02006280WS02006229 (53.41%)
  Link YS02001793JiankangQianchi (15.21%)
  Link WS02006238WS02006235 (13.36%)
  
  
  ********************************
  Highest Flow Instability Indexes
  ********************************
  Link YS02001754YS02001757 (12)
  Link YS02001767YS02001765 (11)
  Link YS02001652YS02001649 (11)
  Link YS02001751YS02001754 (11)
  Link YS02001762YS02001759 (11)
  
  
  *************************
  Routing Time Step Summary
  *************************
  Minimum Time Step           :     0.50 sec
  Average Time Step           :     4.10 sec
  Maximum Time Step           :     5.00 sec
  Percent in Steady State     :     0.00
  Average Iterations per Step :     2.17
  Percent Not Converging      :     0.33
  
  
  ***************************
  Subcatchment Runoff Summary
  ***************************
  
  ------------------------------------------------------------------------------------------------------------------------------
                            Total      Total      Total      Total     Imperv       Perv      Total       Total     Peak  Runoff
                           Precip      Runon       Evap      Infil     Runoff     Runoff     Runoff      Runoff   Runoff   Coeff
  Subcatchment                 mm         mm         mm         mm         mm         mm         mm    10^6 ltr      LPS
  ------------------------------------------------------------------------------------------------------------------------------
  sub0                       1.12       0.00       0.00       0.08       1.00       0.00       1.00        0.00     0.26   0.891
  sub1                       1.12       0.00       0.00       0.12       0.92       0.00       0.92        0.01     1.20   0.821
  sub2                       1.12       0.00       0.00       0.41       0.64       0.00       0.64        0.01     1.02   0.570
  sub3                       1.12       0.00       0.00       0.41       0.62       0.00       0.62        0.01     1.99   0.549
  sub4                       1.12       0.00       0.00       0.12       0.83       0.00       0.83        0.02     2.14   0.739
  sub5                       1.12       0.00       0.00       0.08       0.96       0.00       0.96        0.01     2.14   0.858
  sub7                       1.12       0.00       0.00       0.10       0.96       0.00       0.96        0.00     0.81   0.859
  sub8                       1.12       0.00       0.00       0.10       0.96       0.00       0.96        0.01     1.39   0.853
  sub9                       1.12       0.00       0.00       0.10       0.95       0.00       0.95        0.00     1.02   0.851
  sub10                      1.12       0.00       0.00       0.09       0.96       0.00       0.96        0.01     2.16   0.853
  sub11                      1.12       0.00       0.00       0.09       0.97       0.00       0.97        0.01     2.64   0.865
  sub12                      1.12       0.00       0.00       0.15       0.93       0.00       0.93        0.01     2.38   0.829
  sub14                      1.12       0.00       0.00       0.10       0.95       0.00       0.95        0.01     1.99   0.850
  sub15                      1.12       0.00       0.00       0.34       0.73       0.00       0.73        0.01     2.68   0.652
  sub16                      1.12       0.00       0.00       0.37       0.71       0.00       0.71        0.01     2.05   0.637
  sub17                      1.12       0.00       0.00       0.36       0.72       0.00       0.72        0.01     1.64   0.645
  sub22                      1.12       0.00       0.00       0.48       0.60       0.00       0.60        0.04     9.07   0.537
  sub23                      1.12       0.00       0.00       0.41       0.67       0.00       0.67        0.03     7.78   0.594
  sub60                      1.12       0.00       0.00       0.13       0.42       0.00       0.42        0.13     8.50   0.375
  sub61                      1.12       0.00       0.00       0.19       0.50       0.00       0.50        0.15    11.38   0.444
  sub62                      1.12       0.00       0.00       0.09       0.52       0.00       0.52        0.16    11.43   0.462
  sub63                      1.12       0.00       0.00       0.33       0.46       0.00       0.46        0.14    10.87   0.411
  sub64                      1.12       0.00       0.00       0.17       0.40       0.00       0.40        0.12     8.03   0.356
  sub65                      1.12       0.00       0.00       0.15       0.40       0.00       0.40        0.12     8.11   0.358
  sub66                      1.12       0.00       0.00       0.33       0.36       0.00       0.36        0.11     7.52   0.321
  sub67                      1.12       0.00       0.00       0.09       0.62       0.00       0.62        0.19    15.47   0.557
  sub68                      1.12       0.00       0.00       0.16       0.54       0.00       0.54        0.17    12.77   0.484
  sub69                      1.12       0.00       0.00       0.17       0.65       0.00       0.65        0.15    13.45   0.578
  sub70                      1.12       0.66       0.00       0.61       0.62       0.00       0.62        0.14     8.31   0.351
  sub71                      1.12       0.00       0.00       0.09       0.48       0.00       0.48        0.11     7.79   0.426
  sub72                      1.12       0.00       0.00       0.08       0.28       0.00       0.28        0.06     3.27   0.246
  1                          1.12       0.61       0.00       0.59       0.56       0.00       0.56        0.13     7.15   0.322
  2                          1.12       0.00       0.00       0.84       0.20       0.00       0.20        0.08     7.69   0.180
  
  
  ****************************
  Subcatchment Washoff Summary
  ****************************
  
  ------------------------------------------------------------------------------------------
                                 COD            SS            TN            TP         NH4-N
  Subcatchment                    kg            kg            kg            kg            kg
  ------------------------------------------------------------------------------------------
  sub0                         0.069         0.108         0.001         0.000         0.001
  sub1                         0.265         0.415         0.006         0.000         0.003
  sub2                         0.153         0.233         0.004         0.000         0.002
  sub3                         0.347         0.515         0.010         0.001         0.004
  sub4                         0.552         0.838         0.014         0.001         0.007
  sub5                         0.577         0.888         0.011         0.001         0.005
  sub7                         0.154         0.249         0.003         0.000         0.002
  sub8                         0.242         0.397         0.006         0.000         0.003
  sub9                         0.196         0.318         0.004         0.000         0.002
  sub10                        0.505         0.792         0.010         0.001         0.005
  sub11                        0.537         0.861         0.011         0.001         0.005
  sub12                        0.455         0.726         0.009         0.001         0.004
  sub14                        0.404         0.647         0.009         0.001         0.004
  sub15                        0.448         0.686         0.010         0.001         0.005
  sub16                        0.303         0.470         0.007         0.000         0.003
  sub17                        0.266         0.407         0.006         0.000         0.003
  sub22                        1.331         2.004         0.031         0.002         0.014
  sub23                        0.916         1.443         0.025         0.002         0.011
  sub60                        2.671         3.625         0.071         0.004         0.034
  sub61                        3.595         4.873         0.083         0.005         0.040
  sub62                        3.862         5.337         0.098         0.005         0.047
  sub63                        2.909         3.983         0.082         0.005         0.036
  sub64                        2.822         3.695         0.065         0.004         0.030
  sub65                        2.898         3.807         0.068         0.004         0.032
  sub66                        1.964         2.640         0.058         0.003         0.026
  sub67                        5.881         8.054         0.122         0.008         0.058
  sub68                        4.270         5.892         0.105         0.006         0.049
  sub69                        4.423         6.215         0.103         0.006         0.048
  sub70                        4.822         6.817         0.132         0.008         0.058
  sub71                        2.577         3.585         0.072         0.003         0.034
  sub72                        1.130         1.434         0.027         0.002         0.013
  1                            1.496         2.142         0.045         0.003         0.019
  2                            0.456         0.646         0.020         0.001         0.008
  ------------------------------------------------------------------------------------------
  System                      53.494        74.743         1.328         0.078         0.613
  
  
  ******************
  Node Depth Summary
  ******************
  
  ---------------------------------------------------------------------------------
                                 Average  Maximum  Maximum  Time of Max    Reported
                                   Depth    Depth      HGL   Occurrence   Max Depth
  Node                 Type       Meters   Meters   Meters  days hr:min      Meters
  ---------------------------------------------------------------------------------
  WS02001211           JUNCTION     0.63     0.76     5.60     0  06:51        0.76
  WS02001212           JUNCTION     0.35     0.46     5.52     0  06:50        0.46
  WS02001213           JUNCTION     0.54     0.68     5.44     0  06:49        0.68
  WS02003069           JUNCTION     0.30     0.42     5.01     0  03:33        0.42
  WS02003072           JUNCTION     0.37     0.49     4.86     0  03:34        0.49
  WS02003073           JUNCTION     0.21     0.29     4.36     0  03:34        0.29
  WS02003060           JUNCTION     0.27     0.38     5.31     0  03:32        0.38
  WS02003066           JUNCTION     0.10     0.18     5.74     0  03:35        0.18
  WS02003059           JUNCTION     0.60     0.72     5.41     0  06:49        0.72
  WS02003067           JUNCTION     0.28     0.48     5.80     0  03:34        0.48
  WS02004401           JUNCTION     0.37     0.54     6.54     0  03:28        0.54
  WS02004402           JUNCTION     0.41     0.57     6.53     0  03:28        0.57
  WS02004403           JUNCTION     0.43     0.60     6.53     0  03:30        0.60
  WS02004404           JUNCTION     0.51     0.68     6.53     0  03:30        0.68
  WS02004406           JUNCTION     0.53     0.70     6.53     0  03:27        0.70
  WS02004409           JUNCTION     0.16     0.34     6.11     0  03:32        0.34
  WS02004410           JUNCTION     0.19     0.36     6.08     0  03:33        0.36
  WS02004411           JUNCTION     0.21     0.39     6.07     0  03:33        0.39
  WS02004412           JUNCTION     0.24     0.42     6.06     0  03:34        0.42
  WS02004413           JUNCTION     0.37     0.59     6.06     0  03:34        0.59
  WS02004405           JUNCTION     0.51     0.68     6.53     0  03:27        0.68
  WS02006109           JUNCTION     0.41     0.64     7.26     0  03:23        0.64
  WS02006110           JUNCTION     0.44     0.66     7.24     0  03:23        0.66
  WS02006111           JUNCTION     0.09     0.18     6.89     0  03:24        0.18
  WS02006112           JUNCTION     0.50     0.68     6.56     0  03:24        0.68
  WS02006113           JUNCTION     0.12     0.27     7.17     0  03:24        0.27
  WS02006115           JUNCTION     0.25     0.41     6.55     0  03:29        0.41
  WS02006116           JUNCTION     0.34     0.50     6.54     0  03:28        0.50
  WS02006230           JUNCTION     0.30     0.55     7.30     0  03:22        0.55
  WS02006231           JUNCTION     0.12     0.40     7.52     0  03:22        0.39
  WS02006232           JUNCTION     0.21     0.53     7.57     0  03:22        0.53
  WS02006234           JUNCTION     0.10     0.43     7.59     0  03:22        0.43
  WS02006235           JUNCTION     0.13     0.46     7.63     0  03:22        0.46
  WS02006238           JUNCTION     0.15     0.48     7.63     0  03:22        0.48
  WS02006240           JUNCTION     0.07     0.34     7.63     0  03:22        0.33
  WS02006242           JUNCTION     0.10     0.37     7.64     0  03:22        0.37
  WS02006243           JUNCTION     0.03     0.22     7.64     0  03:23        0.22
  WS02006245           JUNCTION     0.04     0.17     7.65     0  03:23        0.16
  WS02006247           JUNCTION     0.04     0.16     7.66     0  03:24        0.16
  WS02006248           JUNCTION     0.03     0.08     7.66     0  03:24        0.07
  WS02006249           JUNCTION     0.05     0.09     7.69     0  02:38        0.09
  WS02006239           JUNCTION     0.09     0.42     7.63     0  03:22        0.42
  WS02006251           JUNCTION     0.03     0.06     7.73     0  02:36        0.06
  WS02006252           JUNCTION     0.00     0.00     8.24     0  00:00        0.00
  WS02006253           JUNCTION     0.06     0.11     7.75     0  02:34        0.11
  WS02006256           JUNCTION     0.47     2.35     9.28     0  00:00        2.35
  WS02004138           JUNCTION     0.14     0.20     7.45     0  00:00        0.19
  WS02004139           JUNCTION     0.57     0.71     5.62     0  06:51        0.71
  WS02004407           JUNCTION     0.07     0.16     6.47     0  03:27        0.16
  WS02006228           JUNCTION     0.38     0.62     7.27     0  03:23        0.62
  WS02006229           JUNCTION     0.34     0.58     7.28     0  03:23        0.58
  WS02006280           JUNCTION     0.04     0.06     8.34     0  02:33        0.06
  WS02006284           JUNCTION     0.31     0.37     8.77     0  02:32        0.37
  WS02006287           JUNCTION     0.05     0.09     9.05     0  02:32        0.09
  WSF200               JUNCTION     0.07     0.15     5.38     0  03:35        0.15
  HS02004901           JUNCTION     0.08     0.13     9.95     0  02:33        0.13
  HS02004881           JUNCTION     0.00     0.01     9.04     0  02:34        0.01
  HS02004876           JUNCTION     0.02     0.04     9.07     0  02:34        0.04
  HS02004870           JUNCTION     0.00     0.01     9.30     0  02:31        0.01
  HS02004862           JUNCTION     0.01     0.01     9.40     0  02:32        0.01
  HS02004856           JUNCTION     0.06     0.08     9.51     0  02:29        0.08
  HS02004852           JUNCTION     0.00     0.01     9.52     0  02:30        0.01
  HS02004848           JUNCTION     0.00     0.01     9.61     0  02:21        0.01
  HS02004842           JUNCTION     0.31     0.34     9.61     0  02:20        0.34
  HS02004837           JUNCTION     0.02     0.03     9.61     0  02:21        0.03
  HS02004830           JUNCTION     0.03     0.04     9.51     0  02:21        0.04
  HS02004824           JUNCTION     0.01     0.02     9.42     0  02:25        0.02
  HS02004817           JUNCTION     0.39     0.44     9.29     0  02:31        0.44
  HS02004807           JUNCTION     0.09     0.12     9.29     0  02:31        0.12
  HS02004802           JUNCTION     0.12     0.16     9.29     0  02:31        0.16
  HS02004799           JUNCTION     0.07     0.12     9.33     0  02:31        0.12
  HS02004792           JUNCTION     0.01     0.03     9.55     0  02:30        0.03
  HS02004788           JUNCTION     0.01     0.02     9.92     0  02:34        0.02
  HS02004785           JUNCTION     0.02     0.05     9.95     0  02:35        0.05
  HS02004777           JUNCTION     0.10     0.15     9.95     0  02:34        0.15
  HS02004770           JUNCTION     0.07     0.12     9.95     0  02:34        0.12
  HS02004480           JUNCTION     0.04     0.08     9.32     0  02:32        0.08
  HS02004479           JUNCTION     0.07     0.12     9.32     0  02:32        0.12
  HS02004478           JUNCTION     0.03     0.06     9.28     0  02:31        0.06
  YS02001745           JUNCTION     0.03     0.04     7.56     0  03:01        0.04
  YS02001748           JUNCTION     0.04     0.10     7.18     0  07:57        0.10
  YS02001751           JUNCTION     0.14     0.30     7.18     0  07:58        0.30
  YS02001754           JUNCTION     0.32     0.58     7.18     0  07:59        0.57
  YS02001762           JUNCTION     0.48     0.78     7.18     0  07:59        0.78
  YS02001765           JUNCTION     0.44     0.73     7.18     0  07:59        0.73
  YS02001767           JUNCTION     0.41     0.69     7.18     0  08:00        0.69
  YS02001770           JUNCTION     0.41     0.69     7.18     0  08:00        0.69
  YS02001774           JUNCTION     0.46     0.76     7.18     0  08:00        0.76
  YS02001779           JUNCTION     0.26     0.50     7.18     0  07:59        0.50
  YS02001882           JUNCTION     0.12     0.19     6.90     0  03:05        0.19
  YS02001884           JUNCTION     0.20     0.29     6.90     0  03:05        0.29
  YS02001759           JUNCTION     0.51     0.82     7.18     0  07:59        0.82
  YS02001887           JUNCTION     0.28     0.36     6.90     0  03:05        0.36
  YS02001890           JUNCTION     0.31     0.40     6.90     0  03:05        0.40
  YS02001898           JUNCTION     0.10     0.16     6.89     0  03:07        0.16
  YS02001901           JUNCTION     0.20     0.28     6.89     0  03:06        0.28
  YS02001904           JUNCTION     0.18     0.26     6.89     0  03:06        0.26
  YS02001907           JUNCTION     0.49     0.60     6.89     0  03:07        0.60
  YS02001910           JUNCTION     0.29     0.38     6.89     0  03:06        0.38
  YS02001915           JUNCTION     0.12     0.17     6.89     0  03:06        0.17
  YS02001918           JUNCTION     0.04     0.04     7.11     0  03:08        0.04
  YS02001619           JUNCTION     0.12     0.25     7.18     0  08:00        0.25
  YS02001629           JUNCTION     0.36     0.63     7.18     0  07:59        0.63
  YS02001641           JUNCTION     0.45     0.74     7.18     0  08:00        0.74
  YS02001644           JUNCTION     0.46     0.75     7.18     0  08:00        0.75
  YS02001652           JUNCTION     0.33     0.59     7.18     0  07:59        0.59
  YS02001655           JUNCTION     0.16     0.33     7.18     0  08:00        0.33
  YS02001920           JUNCTION     0.11     0.12     7.13     0  03:07        0.12
  YS02001923           JUNCTION     0.02     0.03     7.29     0  03:05        0.03
  YS02001926           JUNCTION     0.06     0.08     7.52     0  03:04        0.08
  YS02001929           JUNCTION     0.02     0.03     7.72     0  03:01        0.03
  YS02001658           JUNCTION     0.03     0.05     7.19     0  03:01        0.05
  YS02001661           JUNCTION     0.09     0.12     7.52     0  03:01        0.12
  YS02001664           JUNCTION     0.03     0.04     7.97     0  03:01        0.04
  YS02001622           JUNCTION     0.13     0.28     7.18     0  08:00        0.28
  YS02001633           JUNCTION     0.44     0.73     7.18     0  08:00        0.73
  YS02001649           JUNCTION     0.48     0.79     7.18     0  07:59        0.79
  YS02001757           JUNCTION     0.60     0.92     7.18     0  07:59        0.92
  YS02001895           JUNCTION     0.10     0.15     6.90     0  03:05        0.15
  YS02001625           JUNCTION     0.35     0.58     7.18     0  07:59        0.58
  YS02163301           JUNCTION     0.38     0.66     7.18     0  08:00        0.66
  YS02163601           JUNCTION     0.49     0.78     7.18     0  07:59        0.78
  YS02164001           JUNCTION     0.43     0.72     7.18     0  08:00        0.72
  YS02001647           JUNCTION     0.31     0.57     7.18     0  07:59        0.57
  YSB1154              JUNCTION     0.20     0.27     9.32     0  02:32        0.27
  YSB6556              JUNCTION     0.10     0.16     9.32     0  02:31        0.15
  YSB1174              JUNCTION     0.16     0.21     9.32     0  02:32        0.21
  YSB1171              JUNCTION     0.35     0.42     9.32     0  02:32        0.42
  YS02006553           JUNCTION     0.49     0.61     6.89     0  03:07        0.61
  YS02006561           JUNCTION     0.05     0.08     6.74     0  03:07        0.08
  YS02006556           JUNCTION     0.47     0.58     6.89     0  03:06        0.58
  YS02006558           JUNCTION     0.51     0.62     6.89     0  03:06        0.62
  YS02001783           JUNCTION     0.08     0.13     6.27     0  03:07        0.13
  YS02001784           JUNCTION     0.11     0.17     6.24     0  03:07        0.17
  YS02001786           JUNCTION     0.10     0.14     6.17     0  03:08        0.14
  YS02001788           JUNCTION     0.06     0.10     6.08     0  03:09        0.10
  YS02001790           JUNCTION     0.08     0.12     5.77     0  03:09        0.12
  YS02001791           JUNCTION     0.05     0.08     5.55     0  03:09        0.08
  YS02001793           JUNCTION     0.03     0.05     4.89     0  03:22        0.05
  WSC                  OUTFALL      0.21     0.29     0.96     0  03:35        0.29
  JK-storage           STORAGE      0.51     3.00     3.80     0  00:00        2.13
  CC-storage           STORAGE      0.06     0.18     7.18     0  08:00        0.18
  XR-storage           STORAGE      1.73     5.00     3.00     0  00:00        4.95
  
  
  *******************
  Node Inflow Summary
  *******************
  
  -------------------------------------------------------------------------------------------------
                                  Maximum  Maximum                  Lateral       Total        Flow
                                  Lateral    Total  Time of Max      Inflow      Inflow     Balance
                                   Inflow   Inflow   Occurrence      Volume      Volume       Error
  Node                 Type           LPS      LPS  days hr:min    10^6 ltr    10^6 ltr     Percent
  -------------------------------------------------------------------------------------------------
  WS02001211           JUNCTION      7.35   387.83     0  06:58       0.212         7.3       0.540
  WS02001212           JUNCTION      0.00   388.02     0  06:58           0        7.26       0.338
  WS02001213           JUNCTION      0.00   388.23     0  06:58           0        7.23       0.344
  WS02003069           JUNCTION      0.32   534.27     0  03:33     0.00922        8.74       0.261
  WS02003072           JUNCTION      0.00   533.82     0  03:33           0        8.71       0.348
  WS02003073           JUNCTION      1.82   535.45     0  03:34      0.0524        8.74       0.382
  WS02003060           JUNCTION     16.53   534.24     0  03:32       0.476        8.75       0.260
  WS02003066           JUNCTION      0.00   145.46     0  03:35           0        1.11       0.134
  WS02003059           JUNCTION      0.00   388.60     0  06:57           0        7.21       0.506
  WS02003067           JUNCTION      0.00   145.48     0  03:34           0        1.11       0.399
  WS02004401           JUNCTION      0.00   188.39     0  03:25           0        1.22       0.883
  WS02004402           JUNCTION      0.00   180.30     0  03:25           0        1.21       0.904
  WS02004403           JUNCTION      0.00   173.85     0  03:26           0         1.2       0.881
  WS02004404           JUNCTION      0.16   168.62     0  03:26     0.00467        1.19       0.725
  WS02004406           JUNCTION      0.00   160.63     0  03:26           0        1.17       1.836
  WS02004409           JUNCTION      0.00   156.04     0  03:27           0        1.15       0.281
  WS02004410           JUNCTION      0.00   152.16     0  03:28           0        1.14       0.438
  WS02004411           JUNCTION      0.00   149.45     0  03:32           0        1.14       0.546
  WS02004412           JUNCTION      0.00   147.50     0  03:33           0        1.13       0.724
  WS02004413           JUNCTION      0.00   146.28     0  03:33           0        1.12       1.263
  WS02004405           JUNCTION      0.04   165.15     0  03:26      0.0011        1.18       1.119
  WS02006109           JUNCTION      1.23   220.46     0  03:23      0.0354        1.26       0.844
  WS02006110           JUNCTION      0.00   217.30     0  03:23           0        1.25       0.671
  WS02006111           JUNCTION      0.00   210.58     0  03:24           0        1.24       0.070
  WS02006112           JUNCTION      1.64   209.57     0  03:24      0.0062        1.25       1.260
  WS02006113           JUNCTION      0.00   213.00     0  03:23           0        1.24       0.145
  WS02006115           JUNCTION      0.00   203.62     0  03:24           0        1.23       0.580
  WS02006116           JUNCTION      0.00   196.02     0  03:25           0        1.22       0.658
  WS02006230           JUNCTION     10.28   209.09     0  03:22       0.296       0.879       0.653
  WS02006231           JUNCTION      0.00   203.68     0  03:22           0        0.58      -0.469
  WS02006232           JUNCTION      0.00   207.11     0  03:22           0       0.588       1.327
  WS02006234           JUNCTION      0.00   211.14     0  03:22           0       0.582      -1.049
  WS02006235           JUNCTION      0.00   288.60     0  00:00           0       0.703       1.177
  WS02006238           JUNCTION      0.00   164.86     0  00:00           0        0.24       0.010
  WS02006240           JUNCTION      0.00    80.36     0  00:02           0       0.146       0.195
  WS02006242           JUNCTION      0.00    65.03     0  00:03           0      0.0996       0.862
  WS02006243           JUNCTION      0.00    31.23     0  04:56           0      0.0636       1.981
  WS02006245           JUNCTION      0.00    16.54     0  06:31           0      0.0481       2.630
  WS02006247           JUNCTION      0.00    11.94     0  06:32           0      0.0405       0.460
  WS02006248           JUNCTION      0.00     5.65     0  02:38           0      0.0371       0.249
  WS02006249           JUNCTION      0.00     5.68     0  02:36           0       0.037       0.793
  WS02006239           JUNCTION      0.00   121.08     0  00:01           0       0.194       0.092
  WS02006251           JUNCTION      0.08     5.70     0  02:34     0.00222       0.037       0.172
  WS02006252           JUNCTION      0.00     0.00     0  00:00           0           0       0.000 ltr
  WS02006253           JUNCTION      0.26     5.63     0  02:33    0.000809      0.0349       0.457
  WS02006256           JUNCTION      0.00   983.00     0  00:00           0       0.756      -0.410
  WS02004138           JUNCTION      0.00   380.00     0  00:00           0        7.13       0.083
  WS02004139           JUNCTION      0.32   396.51     0  00:00     0.00924        7.13       0.625
  WS02004407           JUNCTION      0.00   156.92     0  03:27           0        1.15       0.132
  WS02006228           JUNCTION      0.00   224.91     0  03:22           0        1.24       0.631
  WS02006229           JUNCTION      0.00   229.40     0  03:22           0        1.24       0.499
  WS02006280           JUNCTION      0.00    38.41     0  02:33           0       0.368       0.021
  WS02006284           JUNCTION      0.10    38.41     0  02:32     0.00275       0.369       0.319
  WS02006287           JUNCTION      0.00    38.32     0  02:31           0       0.367       0.187
  WSF200               JUNCTION      0.00   145.44     0  03:35           0        1.11       0.096
  HS02004901           JUNCTION      2.05     2.05     0  02:12     0.00747      0.0076      29.882
  HS02004881           JUNCTION      0.81     5.49     0  02:33     0.00325      0.0342       0.160
  HS02004876           JUNCTION      1.20     4.98     0  02:30     0.00612      0.0314       1.578
  HS02004870           JUNCTION      1.39     3.90     0  02:30     0.00611      0.0254       0.394
  HS02004862           JUNCTION      1.22     2.78     0  02:28      0.0117      0.0194       0.817
  HS02004856           JUNCTION      1.02     1.62     0  02:25     0.00459     0.00913      18.527
  HS02004852           JUNCTION      0.00     0.72     0  02:27           0     0.00458       0.832
  HS02004848           JUNCTION      1.99     1.99     0  02:26      0.0138      0.0138       0.252
  HS02004842           JUNCTION      0.00     4.48     0  00:03           0      0.0223     139.575
  HS02004837           JUNCTION      8.51     9.78     0  02:20       0.193       0.203       0.403
  HS02004830           JUNCTION      0.15     9.92     0  02:21     0.00432       0.193       0.639
  HS02004824           JUNCTION      2.19    12.07     0  02:25      0.0187       0.211       0.254
  HS02004817           JUNCTION      0.60    12.67     0  02:25      0.0173       0.227       7.896
  HS02004807           JUNCTION      2.64    14.97     0  02:22      0.0113       0.222       1.935
  HS02004802           JUNCTION      0.00    14.84     0  02:24           0       0.218       1.887
  HS02004799           JUNCTION      1.99    20.19     0  02:29     0.00907       0.149       1.495
  HS02004792           JUNCTION      9.35    18.48     0  02:30      0.0461        0.14       0.299
  HS02004788           JUNCTION      4.35    11.07     0  02:33      0.0607      0.0954       0.411
  HS02004785           JUNCTION      0.15     7.28     0  02:32     0.00432      0.0369       1.251
  HS02004777           JUNCTION      0.03     7.85     0  02:13    0.000864       0.037      16.168
  HS02004770           JUNCTION      7.78     9.53     0  02:13      0.0318      0.0376       8.937
  HS02004480           JUNCTION      0.00    23.64     0  02:31           0       0.166       0.348
  HS02004479           JUNCTION      0.00     3.75     0  02:15           0      0.0291       2.545
  HS02004478           JUNCTION      0.00    38.32     0  02:31           0       0.368       0.218
  YS02001745           JUNCTION      8.50     8.50     0  03:01       0.128       0.128       0.125
  YS02001748           JUNCTION      0.04     8.54     0  03:01      0.0013       0.129       0.566
  YS02001751           JUNCTION      0.01     8.55     0  03:01    0.000317       0.128       4.977
  YS02001754           JUNCTION      0.26    12.41     0  05:21     0.00749       0.132      11.564
  YS02001762           JUNCTION      0.00    12.58     0  03:21           0       0.121      16.799
  YS02001765           JUNCTION      0.00    12.39     0  03:39           0        0.12      18.377
  YS02001767           JUNCTION      0.54    13.37     0  03:39      0.0154       0.134      24.142
  YS02001770           JUNCTION     11.58    13.78     0  03:20       0.164       0.167      15.418
  YS02001774           JUNCTION      0.00     8.03     0  03:20           0      0.0334     137.483
  YS02001779           JUNCTION      0.01     4.25     0  03:22    0.000144      0.0112     267.491
  YS02001882           JUNCTION      0.00     1.14     0  02:10           0     0.00157     189.540
  YS02001884           JUNCTION      0.00     3.43     0  02:13           0     0.00677     103.575
  YS02001759           JUNCTION     11.42    22.79     0  03:35       0.154       0.247       8.714
  YS02001887           JUNCTION     15.92    15.92     0  02:58       0.206       0.207       2.774
  YS02001890           JUNCTION      0.00    15.71     0  03:00           0       0.195       3.294
  YS02001898           JUNCTION      0.00    15.54     0  03:04           0       0.187       0.665
  YS02001901           JUNCTION      0.00    15.55     0  03:05           0       0.188       2.197
  YS02001904           JUNCTION      0.00    15.52     0  03:05           0       0.188       2.058
  YS02001907           JUNCTION      0.00    29.35     0  03:07           0       0.427       4.815
  YS02001910           JUNCTION      0.00    13.96     0  03:04           0       0.249       3.437
  YS02001915           JUNCTION      7.81    13.96     0  03:01       0.113       0.252       1.119
  YS02001918           JUNCTION      0.00     6.21     0  03:06           0       0.139       0.348
  YS02001619           JUNCTION      7.52     7.52     0  03:01        0.11        0.11       2.238
  YS02001629           JUNCTION      0.00     7.97     0  03:40           0      0.0818      15.451
  YS02001641           JUNCTION      0.00    15.10     0  03:27           0       0.149      12.411
  YS02001644           JUNCTION      8.07    21.89     0  03:33       0.122       0.249       8.795
  YS02001652           JUNCTION      0.00    11.47     0  03:42           0       0.136      11.022
  YS02001655           JUNCTION      0.15    11.02     0  03:01     0.00443       0.143       5.218
  YS02001920           JUNCTION      2.87     6.21     0  03:05      0.0827        0.14       0.900
  YS02001923           JUNCTION      0.04     3.34     0  03:04     0.00109      0.0579       0.187
  YS02001926           JUNCTION      0.05     3.32     0  03:01      0.0015      0.0576       1.470
  YS02001929           JUNCTION      3.27     3.27     0  03:01      0.0562      0.0562       0.165
  YS02001658           JUNCTION      0.00    10.86     0  03:01           0       0.139       0.208
  YS02001661           JUNCTION      0.00    10.87     0  03:01           0       0.139       0.407
  YS02001664           JUNCTION     10.87    10.87     0  03:01       0.139       0.139       0.065
  YS02001622           JUNCTION      0.00     7.58     0  03:00           0       0.108       7.785
  YS02001633           JUNCTION      8.31    16.50     0  03:34       0.129       0.188      14.754
  YS02001649           JUNCTION      0.00    32.25     0  03:39           0       0.324      10.193
  YS02001757           JUNCTION      0.00    62.25     0  03:37           0       0.607      16.069
  YS02001895           JUNCTION      0.00    15.59     0  03:03           0       0.189       1.094
  YS02001625           JUNCTION      0.00     9.02     0  03:01           0         0.1      25.884
  YS02163301           JUNCTION      0.00    10.43     0  03:26           0      0.0764      27.917
  YS02163601           JUNCTION      0.11    15.71     0  03:40     0.00317       0.165      17.369
  YS02164001           JUNCTION      0.00    15.81     0  03:41           0        0.15      11.359
  YS02001647           JUNCTION      0.00    22.13     0  03:40           0        0.22       8.542
  YSB1154              JUNCTION      2.14     2.14     0  02:18      0.0109      0.0124      13.121
  YSB6556              JUNCTION      0.00     2.12     0  02:14           0      0.0136       9.995
  YSB1174              JUNCTION      2.38     2.38     0  02:11     0.00813     0.00925      16.072
  YSB1171              JUNCTION      0.00     4.17     0  02:15           0      0.0285      28.359
  YS02006553           JUNCTION      0.00    29.40     0  03:09           0       0.414       3.192
  YS02006561           JUNCTION      0.00    42.60     0  03:06           0       0.566       0.054
  YS02006556           JUNCTION      0.00    29.43     0  03:09           0       0.415       2.244
  YS02006558           JUNCTION     13.65    42.61     0  03:06       0.192       0.588       0.664
  YS02001783           JUNCTION      0.00    42.59     0  03:07           0       0.566       0.126
  YS02001784           JUNCTION      1.06    43.64     0  03:07      0.0305       0.595       0.213
  YS02001786           JUNCTION      0.06    43.69     0  03:08     0.00162       0.596       0.220
  YS02001788           JUNCTION      0.07    43.76     0  03:08     0.00204       0.597       0.114
  YS02001790           JUNCTION      0.15    43.92     0  03:09     0.00446         0.6       0.147
  YS02001791           JUNCTION      0.00    43.92     0  03:09           0       0.599       0.072
  YS02001793           JUNCTION      0.00    44.43     0  03:22           0       0.599       0.035
  WSC                  OUTFALL       0.00   535.00     0  03:35           0         8.7       0.000
  JK-storage           STORAGE       0.00    43.93     0  03:22           0       0.749      -5.905
  CC-storage           STORAGE       0.00    56.45     0  03:37           0       0.515       1.907
  XR-storage           STORAGE     214.63   214.63     0  03:01        5.97        6.57      -7.775
  
  
  **********************
  Node Surcharge Summary
  **********************
  
  Surcharging occurs when water rises above the top of the highest conduit.
  ---------------------------------------------------------------------
                                               Max. Height   Min. Depth
                                   Hours       Above Crown    Below Rim
  Node                 Type      Surcharged         Meters       Meters
  ---------------------------------------------------------------------
  WS02006256           JUNCTION        3.86          2.050        0.000
  
  
  *********************
  Node Flooding Summary
  *********************
  
  Flooding refers to all water that overflows a node, whether it ponds or not.
  --------------------------------------------------------------------------
                                                             Total   Maximum
                                 Maximum   Time of Max       Flood    Ponded
                        Hours       Rate    Occurrence      Volume     Depth
  Node                 Flooded       LPS   days hr:min    10^6 ltr    Meters
  --------------------------------------------------------------------------
  WS02006256              0.24    978.40      0  00:00       0.200     0.000
  
  
  **********************
  Storage Volume Summary
  **********************
  
  --------------------------------------------------------------------------------------------------
                         Average     Avg  Evap Exfil       Maximum     Max    Time of Max    Maximum
                          Volume    Pcnt  Pcnt  Pcnt        Volume    Pcnt     Occurrence    Outflow
  Storage Unit           1000 m3    Full  Loss  Loss       1000 m3    Full    days hr:min        LPS
  --------------------------------------------------------------------------------------------------
  JK-storage               0.025       9     0     0         0.151      52       0  00:00     983.00
  CC-storage               0.157       1     0     0         0.505       3       0  08:00       0.00
  XR-storage               0.207      22     0     0         0.600      65       0  00:00     380.00
  
  
  ***********************
  Outfall Loading Summary
  ***********************
  
  ---------------------------------------------------------------------------------------------------------------------------------
                         Flow       Avg       Max       Total         Total         Total         Total         Total         Total
                         Freq      Flow      Flow      Volume           COD            SS            TN            TP         NH4-N
  Outfall Node           Pcnt       LPS       LPS    10^6 ltr            kg            kg            kg            kg            kg
  ---------------------------------------------------------------------------------------------------------------------------------
  WSC                   99.94    303.74    535.00       8.703      1540.998      2463.817       146.937        18.345        91.779
  ---------------------------------------------------------------------------------------------------------------------------------
  System                99.94    303.74    535.00       8.703      1540.998      2463.817       146.937        18.345        91.779
  
  
  ********************
  Link Flow Summary
  ********************
  
  -----------------------------------------------------------------------------
                                 Maximum  Time of Max   Maximum    Max/    Max/
                                  |Flow|   Occurrence   |Veloc|    Full    Full
  Link                 Type          LPS  days hr:min     m/sec    Flow   Depth
  -----------------------------------------------------------------------------
  WS02003066WSF200     CONDUIT    145.44     0  03:35      2.00    0.02    0.12
  WS02006287WS02006284 CONDUIT     38.31     0  02:32      0.87    0.02    0.11
  WS02006284WS02006280 CONDUIT     38.41     0  02:33      1.13    0.02    0.09
  WS02006280WS02006229 CONDUIT     38.41     0  02:33      1.80    0.01    0.06
  WS02006229WS02006228 CONDUIT    224.91     0  03:22      0.96    0.74    0.73
  WS02006256WS02006235 CONDUIT    288.60     0  00:00      4.23    3.05    1.00
  WS02006253WS02006251 CONDUIT      5.62     0  02:34      0.23    0.02    0.11
  WS02006252WS02006251 CONDUIT      0.00     0  00:00      0.00    0.00    0.00
  WS02006251WS02006249 CONDUIT      5.68     0  02:36      0.26    0.02    0.11
  WS02006249WS02006248 CONDUIT      5.65     0  02:38      0.31    0.03    0.09
  WS02006248WS02006247 CONDUIT      7.63     0  03:25      0.33    0.02    0.16
  WS02006247WS02006245 CONDUIT     14.74     0  03:25      0.34    0.12    0.22
  WS02006245WS02006243 CONDUIT     22.13     0  03:25      0.51    0.07    0.27
  WS02006243WS02006242 CONDUIT     47.34     0  03:24      0.50    0.10    0.40
  WS02006242WS02006240 CONDUIT     65.03     0  00:03      0.90    0.26    0.50
  WS02006240WS02006239 CONDUIT     80.36     0  00:02      0.76    0.25    0.51
  WS02006239WS02006238 CONDUIT    121.08     0  00:01      0.88    0.39    0.63
  WS02006238WS02006235 CONDUIT    164.86     0  00:00      1.46    0.37    0.68
  WS02006235WS02006234 CONDUIT    211.14     0  03:22      1.09    2.23    0.62
  WS02006234WS02006232 CONDUIT    207.11     0  03:22      1.39    0.42    0.69
  WS02006232WS02006231 CONDUIT    203.68     0  03:22      0.76    0.43    0.65
  WS02006231WS02006230 CONDUIT    198.81     0  03:22      1.09    3.02    0.48
  WS02006230WS02006229 CONDUIT    206.53     0  03:22      0.90    4.60    0.77
  WS02006228WS02006109 CONDUIT    219.23     0  03:23      0.79    0.96    0.78
  WS02006116WS02004401 CONDUIT    188.39     0  03:25      0.47    0.26    0.52
  WS02006115WS02006116 CONDUIT    196.02     0  03:25      0.64    0.25    0.42
  WS02006113WS02006111 CONDUIT    210.58     0  03:24      1.80    0.25    0.28
  WS02006112WS02006115 CONDUIT    203.62     0  03:24      0.48    0.12    0.54
  WS02006111WS02006112 CONDUIT    209.28     0  03:24      0.93    0.10    0.52
  WS02006110WS02006113 CONDUIT    213.00     0  03:23      0.70    0.19    0.58
  WS02006109WS02006110 CONDUIT    217.30     0  03:23      0.54    0.42    0.74
  WS02004411WS02004412 CONDUIT    147.50     0  03:33      0.52    0.21    0.40
  WS02004401WS02004402 CONDUIT    180.30     0  03:25      0.46    0.22    0.55
  WS02004413WS02003067 CONDUIT    145.48     0  03:34      0.54    0.06    0.38
  WS02004412WS02004413 CONDUIT    146.28     0  03:33      0.41    0.10    0.50
  WS02004410WS02004411 CONDUIT    149.45     0  03:32      0.60    0.20    0.38
  WS02004409WS02004410 CONDUIT    152.16     0  03:28      0.69    0.20    0.35
  WS02004407WS02004409 CONDUIT    156.04     0  03:27      1.11    0.06    0.25
  WS02004406WS02004407 CONDUIT    156.92     0  03:27      0.49    0.07    0.43
  WS02004405WS02004406 CONDUIT    160.63     0  03:26      0.39    0.32    0.69
  WS02004404WS02004405 CONDUIT    165.12     0  03:26      0.46    1.62    0.68
  WS02004403WS02004404 CONDUIT    168.46     0  03:26      0.51    0.12    0.64
  WS02004402WS02004403 CONDUIT    173.85     0  03:26      0.50    0.25    0.59
  WS02004139WS02001211 CONDUIT    380.48     0  06:58      0.90    0.48    0.57
  WS02004138WS02004139 CONDUIT    396.19     0  00:00      3.65    0.08    0.43
  WS02003067WS02003066 CONDUIT    145.46     0  03:35      0.58    0.05    0.27
  WS02001213WS02003059 CONDUIT    388.60     0  06:57      0.88    0.64    0.69
  WS02001212WS02001213 CONDUIT    388.23     0  06:58      1.32    0.60    0.41
  WS02001211WS02001212 CONDUIT    388.02     0  06:58      0.78    0.30    0.61
  WS02003072WS02003073 CONDUIT    533.63     0  03:34      1.42    1.15    0.37
  WS02003069WS02003072 CONDUIT    533.82     0  03:33      1.35    0.26    0.38
  WS02003060WS02003069 CONDUIT    533.95     0  03:33      1.63    0.21    0.33
  WS02003059WS02003060 CONDUIT    389.12     0  06:56      0.95    0.25    0.55
  HS02004901HS02004770 CONDUIT      1.75     0  02:13      0.03    0.01    0.18
  HS02004876HS02004881 CONDUIT      4.90     0  02:34      0.19    0.05    0.04
  HS02004870HS02004876 CONDUIT      3.89     0  02:31      0.14    0.00    0.04
  HS02004842HS02004848 CONDUIT      1.30     0  02:32      0.01    0.00    0.25
  HS02004837HS02004842 CONDUIT      4.48     0  00:03      0.42    0.00    0.26
  HS02004830HS02004837 CONDUIT      9.77     0  02:21      0.30    0.01    0.05
  HS02004824HS02004830 CONDUIT      9.92     0  02:22      0.35    0.01    0.04
  HS02004817HS02004824 CONDUIT     12.07     0  02:25      0.17    0.01    0.33
  HS02004770HS02004777 CONDUIT      7.82     0  02:13      0.08    0.01    0.20
  HS02004799HS02004480 CONDUIT     20.16     0  02:31      0.21    0.03    0.14
  HS02004792HS02004799 CONDUIT     18.48     0  02:30      0.25    0.01    0.11
  HS02004788HS02004792 CONDUIT     11.05     0  02:34      0.42    0.01    0.04
  HS02004785HS02004788 CONDUIT      7.19     0  02:35      0.20    0.05    0.05
  HS02004777HS02004785 CONDUIT      7.13     0  02:32      0.07    0.01    0.14
  HS02004480HS02004478 CONDUIT     23.60     0  02:32      0.42    0.10    0.08
  HS02004479HS02004480 CONDUIT      3.65     0  02:15      0.15    0.00    0.14
  HS02004862HS02004870 CONDUIT      2.74     0  02:31      0.21    0.00    0.02
  HS02004848HS02004852 CONDUIT      0.72     0  02:27      0.12    0.00    0.01
  HS02004856HS02004862 CONDUIT      1.59     0  02:29      0.14    0.00    0.02
  HS02004852HS02004856 CONDUIT      0.71     0  02:30      0.02    0.00    0.06
  HS02004802HS02004478 CONDUIT     14.76     0  02:27      0.14    0.01    0.15
  HS02004478WS02006287 CONDUIT     38.32     0  02:31      0.60    0.01    0.07
  HS02004817HS02004807 CONDUIT     12.60     0  02:29      0.05    0.01    0.40
  HS02004807HS02004802 CONDUIT     14.84     0  02:24      0.18    0.03    0.19
  YS02001759YS02001757 CONDUIT     22.61     0  03:35      0.12    0.02    0.87
  YS02001762YS02001759 CONDUIT     13.03     0  03:35      0.17    0.02    0.80
  YS02001765YS02001762 CONDUIT     12.16     0  03:34      0.22    0.01    0.76
  YS02001770YS02001767 CONDUIT     12.83     0  03:39      0.24    0.05    0.69
  YS02001774YS02001770 CONDUIT      8.03     0  03:20      0.14    0.01    0.71
  YS02001779YS02001774 CONDUIT      4.25     0  03:22      0.02    0.00    0.63
  YS02001649YS02001757 CONDUIT     32.26     0  03:41      0.09    0.02    0.86
  YS02001767YS02001765 CONDUIT     12.39     0  03:39      0.26    0.02    0.71
  YS02006561YS02001783 CONDUIT     42.59     0  03:07      1.07    0.02    0.13
  YS02001783YS02001784 CONDUIT     42.58     0  03:07      0.66    0.06    0.19
  YS02001784YS02001785 CONDUIT     43.64     0  03:08      0.64    0.10    0.19
  YS02001788YS02001790 CONDUIT     43.76     0  03:09      1.06    0.03    0.14
  YS02001790YS02001791 CONDUIT     43.92     0  03:09      1.19    0.05    0.13
  YS02001791YS02001793 CONDUIT     44.43     0  03:22      2.40    0.02    0.08
  YS02001910YS02001907 CONDUIT     13.92     0  03:06      0.49    0.01    0.49
  YS02001786YS02001788 CONDUIT     43.69     0  03:08      0.91    0.08    0.15
  YS02001915YS02001910 CONDUIT     13.96     0  03:04      0.44    0.01    0.28
  YS02001918YS02001915 CONDUIT      6.21     0  03:08      0.44    0.00    0.11
  YS02001923YS02001920 CONDUIT      3.34     0  03:05      0.13    0.00    0.07
  YS02001926YS02001923 CONDUIT      3.30     0  03:04      0.21    0.00    0.05
  YS02001929YS02001926 CONDUIT      3.27     0  03:01      0.20    0.00    0.05
  YS02001920YS02001918 CONDUIT      6.21     0  03:06      0.21    0.01    0.08
  YS02001629YS02163301 CONDUIT      9.00     0  03:34      0.05    0.01    0.65
  YS02001619YS02001622 CONDUIT      7.58     0  03:00      0.36    0.01    0.27
  YS02001622YS02001625 CONDUIT      9.02     0  03:01      0.16    0.00    0.43
  YS02001625YS02001629 CONDUIT      7.97     0  03:40      0.07    0.00    0.42
  YS02163301YS02001633 CONDUIT     10.43     0  03:26      0.05    0.01    0.70
  YS02163601YS02164001 CONDUIT     15.81     0  03:41      0.04    0.01    0.75
  YS02164001YS02001641 CONDUIT     15.08     0  03:40      0.06    0.02    0.73
  YS02001641YS02001644 CONDUIT     15.10     0  03:27      0.07    0.05    0.75
  YS02001647YS02001649 CONDUIT     21.29     0  03:39      0.10    0.01    0.68
  YS02006553YS02006556 CONDUIT     29.43     0  03:09      0.18    0.03    0.57
  YS02006556YS02006558 CONDUIT     29.43     0  03:09      0.07    0.02    0.60
  YSB6556YSB1171       CONDUIT      2.09     0  01:22      0.03    0.00    0.41
  YS02001907YS02006553 CONDUIT     29.40     0  03:09      0.06    0.03    0.66
  YS02006558YS02006561 CONDUIT     42.60     0  03:06      1.31    0.09    0.17
  YS02001633YS02163601 CONDUIT     15.60     0  03:40      0.06    0.02    0.75
  YS02001644YS02001647 CONDUIT     22.13     0  03:40      0.09    0.01    0.66
  YS02001745YS02001748 CONDUIT      8.50     0  03:01      0.75    0.00    0.04
  YS02001748YS02001751 CONDUIT      8.54     0  03:01      0.63    0.00    0.20
  YS02001751YS02001754 CONDUIT     10.59     0  04:17      0.62    0.01    0.41
  YS02001754YS02001757 CONDUIT     15.51     0  05:22      0.33    0.01    0.75
  YS02001882YS02001884 CONDUIT      1.14     0  02:10      0.07    0.00    0.21
  YS02001884YS02001887 CONDUIT      3.43     0  02:13      0.04    0.00    0.30
  YS02001890YS02001895 CONDUIT     15.59     0  03:03      0.09    0.01    0.27
  YS02001895YS02001898 CONDUIT     15.54     0  03:04      0.30    0.03    0.14
  YS02001898YS02001901 CONDUIT     15.55     0  03:05      0.12    0.01    0.22
  YS02001901YS02001904 CONDUIT     15.52     0  03:05      0.18    0.02    0.27
  YS02001904YS02001907 CONDUIT     15.53     0  03:05      0.05    0.01    0.43
  YS02001887YS02001890 CONDUIT     15.71     0  03:00      0.10    0.03    0.36
  YS02001652YS02001649 CONDUIT     12.04     0  03:35      0.24    0.01    0.69
  YS02001655YS02001652 CONDUIT     11.47     0  03:42      0.67    0.01    0.44
  YS02001658YS02001655 CONDUIT     10.86     0  03:01      0.72    0.00    0.19
  YS02001661YS02001658 CONDUIT     10.86     0  03:01      0.78    0.00    0.05
  YS02001664YS02001661 CONDUIT     10.87     0  03:01      0.37    0.00    0.08
  YSB1154YSB6556       CONDUIT      2.12     0  02:14      0.19    0.00    0.30
  YSB1174YSB1171       CONDUIT      2.35     0  02:11      0.02    0.00    0.42
  YSB1171HS02004479    CONDUIT      3.75     0  02:15      0.54    0.00    0.31
  HS02004881HS02006253 CONDUIT      5.49     0  02:34      0.77    0.00    0.01
  YS02001793JiankangQianchi CONDUIT     43.93     0  03:22      7.33    0.00    0.52
  YS02001757CaochengTiaoxuchi CONDUIT     56.45     0  03:37      0.20    0.02    0.55
  WSF200WS02003060     CONDUIT    145.41     0  03:35      1.01    0.03    0.22
  1                    CONDUIT    535.00     0  03:35      2.80    0.19    0.29
  CC-Pump-1            PUMP         0.00     0  00:00              0.00
  CC-Pump-2            PUMP         0.00     0  00:00              0.00
  JK-Pump-1            PUMP       300.00     0  00:00              1.00
  JK-Pump-2            PUMP       683.00     0  00:00              1.00
  XR-Pump-1            PUMP        95.00     0  00:00              1.00
  XR-Pump-2            PUMP        95.00     0  00:00              1.00
  XR-Pump-3            PUMP        95.00     0  00:00              1.00
  XR-Pump-4            PUMP        95.00     0  00:00              1.00
  
  
  ***************************
  Flow Classification Summary
  ***************************
  
  -------------------------------------------------------------------------------------
                      Adjusted    ---------- Fraction of Time in Flow Class ---------- 
                       /Actual         Up    Down  Sub   Sup   Up    Down  Norm  Inlet 
  Conduit               Length    Dry  Dry   Dry   Crit  Crit  Crit  Crit  Ltd   Ctrl  
  -------------------------------------------------------------------------------------
  WS02003066WSF200        1.00   0.06  0.21  0.00  0.00  0.73  0.00  0.00  0.69  0.00
  WS02006287WS02006284    1.00   0.09  0.07  0.00  0.74  0.10  0.00  0.00  0.81  0.00
  WS02006284WS02006280    1.00   0.12  0.00  0.00  0.00  0.00  0.00  0.88  0.00  0.00
  WS02006280WS02006229    1.00   0.12  0.00  0.00  0.00  0.00  0.00  0.88  0.00  0.00
  WS02006229WS02006228    1.00   0.00  0.00  0.00  0.99  0.00  0.00  0.01  0.00  0.00
  WS02006256WS02006235    1.00   0.00  0.00  0.00  0.99  0.01  0.00  0.00  0.00  0.00
  WS02006253WS02006251    1.00   0.05  0.05  0.00  0.89  0.00  0.01  0.00  0.00  0.00
  WS02006252WS02006251    1.00   1.00  0.00  0.00  0.00  0.00  0.00  0.00  0.00  0.00
  WS02006251WS02006249    1.00   0.00  0.00  0.00  1.00  0.00  0.00  0.00  0.98  0.00
  WS02006249WS02006248    1.00   0.00  0.02  0.00  0.02  0.00  0.96  0.00  0.00  0.00
  WS02006248WS02006247    1.00   0.02  0.00  0.00  0.93  0.00  0.00  0.04  0.86  0.00
  WS02006247WS02006245    1.00   0.02  0.01  0.00  0.90  0.00  0.00  0.08  0.00  0.00
  WS02006245WS02006243    1.00   0.01  0.00  0.00  0.68  0.00  0.00  0.31  0.02  0.00
  WS02006243WS02006242    1.00   0.01  0.00  0.00  0.99  0.00  0.00  0.00  0.94  0.00
  WS02006242WS02006240    1.00   0.00  0.00  0.00  1.00  0.00  0.00  0.00  0.00  0.00
  WS02006240WS02006239    1.00   0.00  0.00  0.00  0.36  0.00  0.00  0.63  0.03  0.00
  WS02006239WS02006238    1.00   0.00  0.00  0.00  1.00  0.00  0.00  0.00  0.54  0.00
  WS02006238WS02006235    1.00   0.00  0.00  0.00  1.00  0.00  0.00  0.00  0.00  0.00
  WS02006235WS02006234    1.00   0.00  0.00  0.00  0.51  0.00  0.49  0.00  0.00  0.00
  WS02006234WS02006232    1.00   0.00  0.00  0.00  1.00  0.00  0.00  0.00  0.37  0.00
  WS02006232WS02006231    1.00   0.00  0.00  0.00  0.98  0.00  0.01  0.00  0.00  0.00
  WS02006231WS02006230    1.00   0.00  0.00  0.00  0.00  0.00  1.00  0.00  0.00  0.00
  WS02006230WS02006229    1.00   0.00  0.00  0.00  0.99  0.00  0.00  0.01  0.02  0.00
  WS02006228WS02006109    1.00   0.00  0.00  0.00  0.99  0.00  0.00  0.00  0.00  0.00
  WS02006116WS02004401    1.00   0.03  0.00  0.00  0.97  0.00  0.00  0.00  0.01  0.00
  WS02006115WS02006116    1.00   0.03  0.00  0.00  0.91  0.00  0.00  0.06  0.01  0.00
  WS02006113WS02006111    1.00   0.02  0.00  0.00  0.00  0.98  0.00  0.00  0.05  0.00
  WS02006112WS02006115    1.00   0.02  0.01  0.00  0.96  0.00  0.00  0.00  0.00  0.00
  WS02006111WS02006112    1.00   0.02  0.00  0.00  0.97  0.00  0.00  0.00  0.98  0.00
  WS02006110WS02006113    1.00   0.01  0.01  0.00  0.98  0.00  0.00  0.00  0.00  0.00
  WS02006109WS02006110    1.00   0.00  0.01  0.00  0.98  0.00  0.00  0.00  0.00  0.00
  WS02004411WS02004412    1.00   0.19  0.00  0.00  0.81  0.00  0.00  0.00  0.00  0.00
  WS02004401WS02004402    1.00   0.03  0.00  0.00  0.97  0.00  0.00  0.00  0.01  0.00
  WS02004413WS02003067    1.00   0.19  0.06  0.00  0.00  0.00  0.75  0.00  0.00  0.00
  WS02004412WS02004413    1.00   0.19  0.00  0.00  0.81  0.00  0.00  0.00  0.03  0.00
  WS02004410WS02004411    1.00   0.18  0.00  0.00  0.82  0.00  0.00  0.00  0.01  0.00
  WS02004409WS02004410    1.00   0.18  0.00  0.00  0.82  0.00  0.00  0.00  0.00  0.00
  WS02004407WS02004409    1.00   0.18  0.00  0.00  0.81  0.01  0.00  0.00  0.78  0.00
  WS02004406WS02004407    1.00   0.00  0.18  0.00  0.82  0.00  0.00  0.00  0.00  0.00
  WS02004405WS02004406    1.00   0.00  0.00  0.00  1.00  0.00  0.00  0.00  0.02  0.00
  WS02004404WS02004405    1.00   0.00  0.00  0.00  1.00  0.00  0.00  0.00  0.00  0.00
  WS02004403WS02004404    1.00   0.00  0.04  0.00  0.96  0.00  0.00  0.00  0.02  0.00
  WS02004402WS02004403    1.00   0.04  0.00  0.00  0.96  0.00  0.00  0.00  0.00  0.00
  WS02004139WS02001211    1.00   0.00  0.00  0.00  0.99  0.00  0.00  0.00  0.00  0.00
  WS02004138WS02004139    1.00   0.00  0.01  0.00  0.98  0.01  0.00  0.00  1.00  0.00
  WS02003067WS02003066    1.00   0.25  0.02  0.00  0.73  0.00  0.00  0.00  0.00  0.00
  WS02001213WS02003059    1.00   0.00  0.00  0.00  0.99  0.00  0.00  0.00  0.00  0.00
  WS02001212WS02001213    1.00   0.00  0.00  0.00  0.35  0.00  0.64  0.00  0.00  0.00
  WS02001211WS02001212    1.00   0.00  0.00  0.00  1.00  0.00  0.00  0.00  0.00  0.00
  WS02003072WS02003073    1.00   0.00  0.00  0.00  0.00  0.00  0.00  1.00  0.00  0.00
  WS02003069WS02003072    1.00   0.00  0.00  0.00  0.99  0.01  0.00  0.00  0.47  0.00
  WS02003060WS02003069    1.00   0.00  0.00  0.00  0.93  0.07  0.00  0.00  0.38  0.00
  WS02003059WS02003060    1.00   0.00  0.00  0.00  0.99  0.01  0.00  0.00  0.00  0.00
  HS02004901HS02004770    1.00   0.12  0.01  0.00  0.87  0.00  0.00  0.00  0.03  0.00
  HS02004876HS02004881    1.00   0.02  0.00  0.00  0.98  0.00  0.00  0.00  0.00  0.00
  HS02004870HS02004876    1.00   0.01  0.00  0.00  0.98  0.01  0.00  0.00  0.95  0.00
  HS02004842HS02004848    1.00   0.00  0.13  0.00  0.86  0.00  0.00  0.00  0.79  0.00
  HS02004837HS02004842    1.00   0.00  0.00  0.00  0.99  0.01  0.00  0.00  0.11  0.00
  HS02004830HS02004837    1.00   0.00  0.00  0.00  1.00  0.00  0.00  0.00  0.99  0.00
  HS02004824HS02004830    1.00   0.00  0.00  0.00  1.00  0.00  0.00  0.00  0.00  0.00
  HS02004817HS02004824    1.00   0.00  0.00  0.00  1.00  0.00  0.00  0.00  1.00  0.00
  HS02004770HS02004777    1.00   0.00  0.13  0.00  0.87  0.00  0.00  0.00  0.08  0.00
  HS02004799HS02004480    1.00   0.00  0.03  0.00  0.81  0.00  0.15  0.00  0.00  0.00
  HS02004792HS02004799    1.00   0.00  0.00  0.00  0.99  0.01  0.00  0.00  0.98  0.00
  HS02004788HS02004792    1.00   0.00  0.00  0.00  0.99  0.01  0.00  0.00  0.98  0.00
  HS02004785HS02004788    1.00   0.00  0.00  0.00  1.00  0.00  0.00  0.00  0.00  0.00
  HS02004777HS02004785    1.00   0.00  0.00  0.00  1.00  0.00  0.00  0.00  0.23  0.00
  HS02004480HS02004478    1.00   0.16  0.00  0.00  0.69  0.00  0.02  0.13  0.00  0.00
  HS02004479HS02004480    1.00   0.04  0.00  0.00  0.96  0.00  0.00  0.00  0.17  0.00
  HS02004862HS02004870    1.00   0.00  0.00  0.00  1.00  0.00  0.00  0.00  0.06  0.00
  HS02004848HS02004852    1.00   0.14  0.00  0.00  0.86  0.00  0.00  0.00  0.69  0.00
  HS02004856HS02004862    1.00   0.00  0.25  0.00  0.75  0.00  0.00  0.00  0.71  0.00
  HS02004852HS02004856    1.00   0.12  0.06  0.00  0.82  0.00  0.00  0.00  0.79  0.00
  HS02004802HS02004478    1.00   0.12  0.03  0.00  0.85  0.00  0.00  0.00  0.00  0.00
  HS02004478WS02006287    1.00   0.16  0.00  0.00  0.84  0.00  0.00  0.00  0.81  0.00
  HS02004817HS02004807    1.00   0.00  0.12  0.00  0.88  0.00  0.00  0.00  0.00  0.00
  HS02004807HS02004802    1.00   0.12  0.00  0.00  0.87  0.00  0.00  0.01  0.01  0.00
  YS02001759YS02001757    1.00   0.00  0.00  0.00  1.00  0.00  0.00  0.00  0.17  0.00
  YS02001762YS02001759    1.00   0.00  0.00  0.00  1.00  0.00  0.00  0.00  0.07  0.00
  YS02001765YS02001762    1.00   0.00  0.00  0.00  1.00  0.00  0.00  0.00  0.25  0.00
  YS02001770YS02001767    1.00   0.00  0.00  0.00  1.00  0.00  0.00  0.00  0.00  0.00
  YS02001774YS02001770    1.00   0.00  0.18  0.00  0.81  0.00  0.00  0.00  0.05  0.00
  YS02001779YS02001774    1.00   0.00  0.00  0.00  1.00  0.00  0.00  0.00  0.32  0.00
  YS02001649YS02001757    1.00   0.00  0.00  0.00  1.00  0.00  0.00  0.00  0.20  0.00
  YS02001767YS02001765    1.00   0.00  0.00  0.00  1.00  0.00  0.00  0.00  0.01  0.00
  YS02006561YS02001783    1.00   0.26  0.00  0.00  0.00  0.74  0.00  0.00  0.70  0.00
  YS02001783YS02001784    1.00   0.00  0.26  0.00  0.74  0.00  0.00  0.00  0.71  0.00
  YS02001784YS02001785    1.00   0.00  0.00  0.00  1.00  0.00  0.00  0.00  0.28  0.00
  YS02001788YS02001790    1.00   0.00  0.00  0.00  0.28  0.72  0.00  0.00  1.00  0.00
  YS02001790YS02001791    1.00   0.00  0.00  0.00  0.02  0.98  0.00  0.00  0.00  0.00
  YS02001791YS02001793    1.00   0.00  0.00  0.00  0.00  1.00  0.00  0.00  0.00  0.00
  YS02001910YS02001907    1.00   0.00  0.00  0.00  0.97  0.00  0.00  0.03  0.13  0.00
  YS02001786YS02001788    1.00   0.00  0.00  0.00  0.87  0.13  0.00  0.00  0.00  0.00
  YS02001915YS02001910    1.00   0.00  0.00  0.00  0.99  0.01  0.00  0.00  0.27  0.00
  YS02001918YS02001915    1.00   0.00  0.01  0.00  0.98  0.01  0.00  0.00  0.78  0.00
  YS02001923YS02001920    1.00   0.00  0.00  0.00  1.00  0.00  0.00  0.00  1.00  0.00
  YS02001926YS02001923    1.00   0.00  0.07  0.00  0.00  0.00  0.93  0.00  0.00  0.00
  YS02001929YS02001926    1.00   0.00  0.12  0.00  0.88  0.00  0.00  0.00  0.86  0.00
  YS02001920YS02001918    1.00   0.00  0.01  0.00  0.99  0.00  0.00  0.00  0.00  0.00
  YS02001629YS02163301    1.00   0.22  0.02  0.00  0.77  0.00  0.00  0.00  0.00  0.00
  YS02001619YS02001622    1.00   0.12  0.00  0.00  0.88  0.00  0.00  0.00  0.00  0.00
  YS02001622YS02001625    1.00   0.13  0.00  0.00  0.87  0.00  0.00  0.00  0.17  0.00
  YS02001625YS02001629    1.00   0.13  0.16  0.00  0.58  0.00  0.13  0.00  0.00  0.00
  YS02163301YS02001633    1.00   0.00  0.21  0.00  0.79  0.00  0.00  0.00  0.00  0.00
  YS02163601YS02164001    1.00   0.00  0.07  0.00  0.93  0.00  0.00  0.00  0.00  0.00
  YS02164001YS02001641    1.00   0.01  0.06  0.00  0.93  0.00  0.00  0.00  0.07  0.00
  YS02001641YS02001644    1.00   0.00  0.01  0.00  0.99  0.00  0.00  0.00  0.00  0.00
  YS02001647YS02001649    1.00   0.00  0.26  0.00  0.74  0.00  0.00  0.00  0.01  0.00
  YS02006553YS02006556    1.00   0.02  0.00  0.00  0.98  0.00  0.00  0.00  0.03  0.00
  YS02006556YS02006558    1.00   0.00  0.00  0.00  1.00  0.00  0.00  0.00  0.00  0.00
  YSB6556YSB1171          1.00   0.04  0.07  0.00  0.89  0.00  0.00  0.00  0.00  0.00
  YS02001907YS02006553    1.00   0.00  0.02  0.00  0.97  0.00  0.00  0.00  0.00  0.00
  YS02006558YS02006561    1.00   0.26  0.00  0.00  0.00  0.74  0.00  0.00  0.38  0.00
  YS02001633YS02163601    1.00   0.00  0.01  0.00  0.99  0.00  0.00  0.00  0.21  0.00
  YS02001644YS02001647    1.00   0.00  0.26  0.00  0.74  0.00  0.00  0.00  0.00  0.00
  YS02001745YS02001748    1.00   0.00  0.00  0.00  0.00  0.00  0.00  1.00  0.00  0.00
  YS02001748YS02001751    1.00   0.00  0.00  0.00  0.81  0.19  0.00  0.00  0.57  0.00
  YS02001751YS02001754    1.00   0.00  0.00  0.00  0.69  0.00  0.00  0.30  0.07  0.00
  YS02001754YS02001757    1.00   0.00  0.00  0.00  0.99  0.01  0.00  0.00  0.30  0.00
  YS02001882YS02001884    1.00   0.20  0.02  0.00  0.78  0.00  0.00  0.00  0.00  0.00
  YS02001884YS02001887    1.00   0.06  0.04  0.00  0.90  0.00  0.00  0.00  0.00  0.00
  YS02001890YS02001895    1.00   0.00  0.22  0.00  0.77  0.00  0.00  0.00  0.00  0.00
  YS02001895YS02001898    1.00   0.23  0.01  0.00  0.73  0.00  0.04  0.00  0.00  0.00
  YS02001898YS02001901    1.00   0.20  0.03  0.00  0.77  0.00  0.00  0.00  0.02  0.00
  YS02001901YS02001904    1.00   0.20  0.00  0.00  0.80  0.00  0.00  0.00  0.00  0.00
  YS02001904YS02001907    1.00   0.00  0.20  0.00  0.80  0.00  0.00  0.00  0.00  0.00
  YS02001887YS02001890    1.00   0.00  0.00  0.00  0.97  0.00  0.03  0.00  0.00  0.00
  YS02001652YS02001649    1.00   0.00  0.00  0.00  1.00  0.00  0.00  0.00  0.30  0.00
  YS02001655YS02001652    1.00   0.00  0.00  0.00  0.70  0.00  0.00  0.29  0.08  0.00
  YS02001658YS02001655    1.00   0.00  0.19  0.00  0.62  0.19  0.00  0.00  0.72  0.00
  YS02001661YS02001658    1.00   0.19  0.00  0.00  0.02  0.79  0.00  0.00  0.74  0.00
  YS02001664YS02001661    1.00   0.12  0.00  0.00  0.88  0.00  0.00  0.00  0.86  0.00
  YSB1154YSB6556          1.00   0.11  0.00  0.00  0.89  0.00  0.00  0.00  0.02  0.00
  YSB1174YSB1171          1.00   0.05  0.04  0.00  0.92  0.00  0.00  0.00  0.00  0.00
  YSB1171HS02004479       1.00   0.04  0.00  0.00  0.95  0.00  0.00  0.01  0.13  0.00
  HS02004881HS02006253    1.00   0.05  0.00  0.00  0.00  0.00  0.00  0.95  0.00  0.00
  YS02001793JiankangQianchi    1.00   0.00  0.00  0.00  0.69  0.30  0.00  0.00  0.76  0.00
  YS02001757CaochengTiaoxuchi    1.00   0.00  0.44  0.00  0.56  0.00  0.00  0.00  0.00  0.00
  WSF200WS02003060        1.00   0.00  0.06  0.00  0.92  0.02  0.00  0.00  0.88  0.00
  1                       1.00   0.00  0.00  0.00  0.00  1.00  0.00  0.00  0.47  0.00
  
  
  *************************
  Conduit Surcharge Summary
  *************************
  
  ----------------------------------------------------------------------------
                                                           Hours        Hours 
                         --------- Hours Full --------   Above Full   Capacity
  Conduit                Both Ends  Upstream  Dnstream   Normal Flow   Limited
  ----------------------------------------------------------------------------
  WS02006256WS02006235        0.63      0.64      3.85      0.45         0.01
  WS02006235WS02006234        0.01      0.01      0.01      0.56         0.01
  WS02006231WS02006230        0.01      0.01      0.01      0.82         0.01
  WS02006230WS02006229        0.01      0.01      0.01      1.44         0.01
  WS02004404WS02004405        0.01      0.01      0.01      0.72         0.01
  WS02003072WS02003073        0.01      0.01      0.01      1.02         0.01
  YS02001793JiankangQianchi        0.01      0.01      1.72      0.01         0.01
  
  
  ***************
  Pumping Summary
  ***************
  
  ---------------------------------------------------------------------------------------------------------
                                                  Min       Avg       Max     Total     Power    % Time Off
                        Percent   Number of      Flow      Flow      Flow    Volume     Usage    Pump Curve
  Pump                 Utilized   Start-Ups       LPS       LPS       LPS  10^6 ltr     Kw-hr    Low   High
  ---------------------------------------------------------------------------------------------------------
  CC-Pump-1                0.00           0      0.00      0.00      0.00     0.000      0.00    0.0    0.0
  CC-Pump-2                0.00           0      0.00      0.00      0.00     0.000      0.00    0.0    0.0
  JK-Pump-1               29.16           4      0.00     69.31    300.00     0.508      9.61    0.0    0.0
  JK-Pump-2                8.33           2      0.00    131.61    683.00     0.247      4.76    0.0   89.7
  XR-Pump-1               87.48           4      0.00     87.72     95.00     2.223     47.00    0.0    0.0
  XR-Pump-2               74.99           6      0.00     79.91     95.00     1.710     36.37    0.0    0.0
  XR-Pump-3               70.82           6      0.00     78.82     95.00     1.596     33.74    0.0    0.0
  XR-Pump-4               70.82           6      0.00     78.82     95.00     1.596     33.74    0.0    0.0
  
  
  ***************************
  Link Pollutant Load Summary
  ***************************
  
  ------------------------------------------------------------------------------------------
                                 COD            SS            TN            TP         NH4-N
  Link                            kg            kg            kg            kg            kg
  ------------------------------------------------------------------------------------------
  WS02003066WSF200            85.555       135.335         7.290         0.892         4.510
  WS02006287WS02006284        60.213        96.108         5.386         0.666         3.346
  WS02006284WS02006280        60.648        96.805         5.428         0.671         3.372
  WS02006280WS02006229        60.623        96.765         5.425         0.671         3.370
  WS02006229WS02006228        89.009       140.696         7.590         0.929         4.696
  WS02006256WS02006235        26.826        41.446         2.079         0.249         1.275
  WS02006253WS02006251         2.417         3.847         0.150         0.017         0.089
  WS02006252WS02006251         0.000         0.000         0.000         0.000         0.000
  WS02006251WS02006249         2.979         4.748         0.203         0.024         0.123
  WS02006249WS02006248         2.905         4.628         0.196         0.023         0.118
  WS02006248WS02006247         2.972         4.733         0.202         0.023         0.122
  WS02006247WS02006245         3.410         5.412         0.234         0.027         0.142
  WS02006245WS02006243         4.032         6.374         0.282         0.033         0.171
  WS02006243WS02006242         5.643         8.866         0.405         0.048         0.246
  WS02006242WS02006240         8.803        13.736         0.646         0.077         0.394
  WS02006240WS02006239        11.762        18.297         0.876         0.104         0.535
  WS02006239WS02006238        15.080        23.411         1.135         0.135         0.694
  WS02006238WS02006235        17.353        26.909         1.312         0.156         0.803
  WS02006235WS02006234        28.825        44.646         2.209         0.264         1.353
  WS02006234WS02006232        29.270        45.337         2.243         0.268         1.374
  WS02006232WS02006231        28.978        44.886         2.221         0.265         1.361
  WS02006231WS02006230        28.657        44.382         2.197         0.263         1.346
  WS02006230WS02006229        29.010        44.928         2.224         0.266         1.362
  WS02006228WS02006109        88.075       139.202         7.499         0.918         4.639
  WS02006116WS02004401        92.249       145.866         7.880         0.965         4.876
  WS02006115WS02006116        92.973       147.018         7.948         0.973         4.919
  WS02006113WS02006111        94.776       149.918         8.142         0.998         5.041
  WS02006112WS02006115        93.549       147.941         8.003         0.980         4.953
  WS02006111WS02006112        94.366       149.261         8.102         0.993         5.015
  WS02006110WS02006113        94.973       150.236         8.161         1.000         5.053
  WS02006109WS02006110        95.794       151.553         8.240         1.010         5.102
  WS02004411WS02004412        87.365       138.173         7.446         0.911         4.606
  WS02004401WS02004402        91.529       144.717         7.812         0.956         4.834
  WS02004413WS02003067        86.092       136.173         7.335         0.898         4.538
  WS02004412WS02004413        86.560       136.914         7.377         0.903         4.564
  WS02004410WS02004411        87.879       138.979         7.490         0.917         4.634
  WS02004409WS02004410        88.250       139.560         7.522         0.921         4.654
  WS02004407WS02004409        88.546       140.021         7.548         0.924         4.669
  WS02004406WS02004407        88.663       140.201         7.557         0.925         4.675
  WS02004405WS02004406        89.869       142.113         7.667         0.939         4.744
  WS02004404WS02004405        90.782       143.540         7.746         0.948         4.793
  WS02004403WS02004404        90.126       142.485         7.681         0.940         4.752
  WS02004402WS02004403        90.781       143.527         7.742         0.948         4.790
  WS02004139WS02001211      1264.014      2022.151       121.247        15.152        75.768
  WS02004138WS02004139      1260.583      2016.661       120.917        15.111        75.562
  WS02003067WS02003066        85.576       135.368         7.291         0.893         4.511
  WS02001213WS02003059      1317.245      2107.320       126.357        15.791        78.962
  WS02001212WS02001213      1312.525      2099.769       125.904        15.734        78.679
  WS02001211WS02001212      1315.741      2104.914       126.212        15.773        78.871
  WS02003072WS02003073      1519.199      2428.918       144.828        18.081        90.460
  WS02003069WS02003072      1523.306      2435.488       145.226        18.131        90.709
  WS02003060WS02003069      1520.779      2431.439       144.980        18.100        90.555
  WS02003059WS02003060      1317.560      2107.825       126.387        15.795        78.981
  HS02004901HS02004770         0.267         0.420         0.006         0.000         0.003
  HS02004876HS02004881         2.223         3.535         0.148         0.017         0.089
  HS02004870HS02004876         2.056         3.279         0.151         0.018         0.092
  HS02004842HS02004848         0.121         0.183         0.003         0.000         0.001
  HS02004837HS02004842         4.560         7.291         0.435         0.054         0.271
  HS02004830HS02004837        44.049        70.458         4.187         0.523         2.615
  HS02004824HS02004830        44.824        71.699         4.262         0.532         2.662
  HS02004817HS02004824        45.677        73.020         4.305         0.536         2.687
  HS02004770HS02004777         1.114         1.759         0.029         0.002         0.013
  HS02004799HS02004480        17.696        28.144         1.470         0.179         0.905
  HS02004792HS02004799        17.917        28.496         1.521         0.186         0.938
  HS02004788HS02004792        14.685        23.451         1.308         0.161         0.811
  HS02004785HS02004788         2.630         4.195         0.183         0.021         0.109
  HS02004777HS02004785         2.190         3.492         0.141         0.016         0.084
  HS02004480HS02004478        17.575        27.946         1.413         0.171         0.868
  HS02004479HS02004480         4.809         7.687         0.415         0.051         0.258
  HS02004862HS02004870         1.822         2.892         0.147         0.018         0.090
  HS02004848HS02004852         0.116         0.173         0.003         0.000         0.001
  HS02004856HS02004862         0.254         0.396         0.006         0.000         0.003
  HS02004852HS02004856         0.121         0.181         0.003         0.000         0.001
  HS02004802HS02004478        43.020        68.774         4.010         0.499         2.501
  HS02004478WS02006287        60.401        96.409         5.404         0.668         3.357
  HS02004817HS02004807        44.328        70.862         4.175         0.520         2.606
  HS02004807HS02004802        43.866        70.126         4.091         0.509         2.551
  YS02001759YS02001757         7.589        11.068         0.388         0.041         0.226
  YS02001762YS02001759         5.474         8.213         0.331         0.037         0.197
  YS02001765YS02001762         5.852         8.858         0.385         0.044         0.232
  YS02001770YS02001767         3.639         5.244         0.154         0.014         0.086
  YS02001774YS02001770         1.058         1.528         0.041         0.004         0.022
  YS02001779YS02001774         1.016         1.569         0.076         0.009         0.046
  YS02001649YS02001757         8.517        12.019         0.363         0.035         0.200
  YS02001767YS02001765         6.315         9.601         0.433         0.050         0.262
  YS02006561YS02001783        37.079        56.555         2.659         0.313         1.617
  YS02001783YS02001784        37.022        56.469         2.654         0.312         1.615
  YS02001784YS02001785        44.567        68.547         3.380         0.403         2.068
  YS02001788YS02001790        45.310        69.745         3.453         0.412         2.114
  YS02001790YS02001791        46.351        71.414         3.554         0.425         2.177
  YS02001791YS02001793        46.306        71.344         3.550         0.424         2.175
  YS02001910YS02001907        24.464        38.308         2.108         0.257         1.304
  YS02001786YS02001788        44.851        69.007         3.408         0.406         2.086
  YS02001915YS02001910        24.754        38.726         2.126         0.259         1.314
  YS02001918YS02001915        22.195        35.155         2.053         0.255         1.279
  YS02001923YS02001920         1.865         2.621         0.100         0.011         0.059
  YS02001926YS02001923         1.467         1.979         0.061         0.006         0.034
  YS02001929YS02001926         1.122         1.424         0.027         0.002         0.013
  YS02001920YS02001918        22.236        35.217         2.056         0.255         1.281
  YS02001629YS02163301         1.423         1.945         0.045         0.003         0.021
  YS02001619YS02001622         1.931         2.601         0.056         0.003         0.025
  YS02001622YS02001625         1.815         2.453         0.053         0.003         0.024
  YS02001625YS02001629         1.516         2.061         0.045         0.003         0.021
  YS02163301YS02001633         1.385         1.905         0.047         0.004         0.024
  YS02163601YS02164001         4.938         7.067         0.253         0.027         0.146
  YS02164001YS02001641         4.604         6.546         0.223         0.023         0.128
  YS02001641YS02001644         4.429         6.243         0.198         0.020         0.112
  YS02001647YS02001649         5.851         8.100         0.221         0.021         0.120
  YS02006553YS02006556        31.232        48.051         2.378         0.284         1.457
  YS02006556YS02006558        31.096        47.802         2.352         0.281         1.440
  YSB6556YSB1171               1.549         2.464         0.119         0.014         0.073
  YS02001907YS02006553        31.127        47.870         2.367         0.283         1.451
  YS02006558YS02006561        37.103        56.593         2.661         0.313         1.619
  YS02001633YS02163601         5.028         7.110         0.236         0.024         0.134
  YS02001644YS02001647         6.053         8.350         0.230         0.022         0.125
  YS02001745YS02001748         2.693         3.662         0.073         0.004         0.035
  YS02001748YS02001751         3.011         4.176         0.104         0.008         0.055
  YS02001751YS02001754         2.969         4.142         0.107         0.008         0.056
  YS02001754YS02001757         5.087         7.581         0.321         0.035         0.191
  YS02001882YS02001884         0.102         0.152         0.006         0.001         0.004
  YS02001884YS02001887         0.444         0.665         0.028         0.003         0.017
  YS02001890YS02001895         7.854        11.312         0.337         0.035         0.194
  YS02001895YS02001898         7.779        11.203         0.332         0.035         0.191
  YS02001898YS02001901         7.694        11.083         0.328         0.034         0.188
  YS02001901YS02001904         7.948        11.515         0.358         0.038         0.208
  YS02001904YS02001907         8.923        13.116         0.462         0.051         0.273
  YS02001887YS02001890         8.709        12.647         0.411         0.044         0.240
  YS02001652YS02001649         3.506         5.042         0.159         0.015         0.086
  YS02001655YS02001652         3.833         5.500         0.176         0.017         0.095
  YS02001658YS02001655         2.907         3.986         0.082         0.005         0.036
  YS02001661YS02001658         2.895         3.966         0.082         0.005         0.036
  YS02001664YS02001661         2.898         3.970         0.082         0.005         0.036
  YSB1154YSB6556               0.980         1.545         0.054         0.006         0.032
  YSB1174YSB1171               1.082         1.735         0.080         0.010         0.049
  YSB1171HS02004479            4.573         7.311         0.391         0.048         0.243
  HS02004881HS02006253         2.363         3.761         0.150         0.017         0.090
  YS02001793JiankangQianchi        46.524        71.702         3.571         0.427         2.188
  YS02001757CaochengTiaoxuchi        14.315        20.326         0.603         0.058         0.334
  WSF200WS02003060            85.355       135.027         7.276         0.891         4.501
  1                         1540.998      2463.817       146.937        18.345        91.779
  CC-Pump-1                    0.000         0.000         0.000         0.000         0.000
  CC-Pump-2                    0.000         0.000         0.000         0.000         0.000
  JK-Pump-1                   24.978        38.660         1.966         0.236         1.207
  JK-Pump-2                    6.262         9.524         0.424         0.049         0.257
  XR-Pump-1                  415.919       665.391        39.899         4.986        24.934
  XR-Pump-2                  295.607       472.906        28.355         3.543        17.719
  XR-Pump-3                  273.407       437.388        26.224         3.277        16.388
  XR-Pump-4                  273.407       437.388        26.224         3.277        16.388
  

  Analysis begun on:  Mon Jul 12 19:13:47 2021
  Analysis ended on:  Mon Jul 12 19:13:48 2021
  Total elapsed time: 00:00:01