
  EPA STORM WATER MANAGEMENT MODEL - VERSION 5.1 (Build 5.3.0.dev0)
  --------------------------------------------------------------

  WARNING 04: minimum elevation drop used for Conduit WS02004404WS02004405
  WARNING 03: negative offset ignored for Link YS02001904YS02001907
  
  *********************************************************
  NOTE: The summary statistics displayed in this report are
  based on results found at every computational time step,  
  not just on results from each reporting time step.
  *********************************************************
  
  ****************
  Analysis Options
  ****************
  Flow Units ............... LPS
  Process Models:
    Rainfall/Runoff ........ YES
    RDII ................... NO
    Snowmelt ............... NO
    Groundwater ............ NO
    Flow Routing ........... YES
    Ponding Allowed ........ NO
    Water Quality .......... YES
  Infiltration Method ...... HORTON
  Flow Routing Method ...... DYNWAVE
  Surcharge Method ......... EXTRAN
  Starting Date ............ 08/28/2015 08:00:00
  Ending Date .............. 08/28/2015 15:50:00
  Antecedent Dry Days ...... 8.0
  Report Time Step ......... 00:01:00
  Wet Time Step ............ 00:01:00
  Dry Time Step ............ 00:01:00
  Routing Time Step ........ 5.00 sec
  Variable Time Step ....... YES
  Maximum Trials ........... 8
  Number of Threads ........ 4
  Head Tolerance ........... 0.001500 m
  
  
  **************************        Volume         Depth
  Runoff Quantity Continuity     hectare-m            mm
  **************************     ---------       -------
  Total Precipitation ......         6.144        13.452
  Evaporation Loss .........         0.000         0.000
  Infiltration Loss ........         1.064         2.328
  Surface Runoff ...........         4.147         9.079
  Final Storage ............         0.935         2.047
  Continuity Error (%) .....        -0.020
  
  
  **************************           COD            SS            TN            TP         NH4-N
  Runoff Quality Continuity             kg            kg            kg            kg            kg
  **************************    ----------    ----------    ----------    ----------    ----------
  Initial Buildup ..........     41378.656     70582.865      1804.177       168.684      1032.807
  Surface Buildup ..........        21.799        40.924         2.400         0.218         1.395
  Wet Deposition ...........         0.000         0.000         0.000         0.000         0.000
  Sweeping Removal .........         0.000         0.000         0.000         0.000         0.000
  Infiltration Loss ........        97.311       184.943         1.849         0.130         0.881
  BMP Removal ..............         0.000         0.000         0.000         0.000         0.000
  Surface Runoff ...........      3769.819      7064.251        72.781         4.964        34.599
  Remaining Buildup ........     37531.916     63371.884      1731.919       163.806       998.709
  Continuity Error (%) .....         0.003         0.004         0.002         0.001         0.001
  
  
  **************************        Volume        Volume
  Flow Routing Continuity        hectare-m      10^6 ltr
  **************************     ---------     ---------
  Dry Weather Inflow .......         0.616         6.165
  Wet Weather Inflow .......         4.145        41.454
  Groundwater Inflow .......         0.000         0.000
  RDII Inflow ..............         0.000         0.000
  External Inflow ..........         0.102         1.024
  External Outflow .........         1.817        18.175
  Flooding Loss ............         2.593        25.931
  Evaporation Loss .........         0.000         0.000
  Exfiltration Loss ........         0.000         0.000
  Initial Stored Volume ....         0.076         0.761
  Final Stored Volume ......         0.637         6.374
  Continuity Error (%) .....        -2.179
  
  
  **************************           COD            SS            TN            TP         NH4-N
  Quality Routing Continuity            kg            kg            kg            kg            kg
  **************************    ----------    ----------    ----------    ----------    ----------
  Dry Weather Inflow .......      1541.201      2465.922       147.955        18.494        92.472
  Wet Weather Inflow .......      3769.289      7063.437        72.768         4.964        34.594
  Groundwater Inflow .......         0.000         0.000         0.000         0.000         0.000
  RDII Inflow ..............         0.000         0.000         0.000         0.000         0.000
  External Inflow ..........       183.418       293.469        17.608         2.201        11.005
  External Outflow .........      2236.312      3858.120       145.373        17.166        88.099
  Flooding Loss ............      2581.065      4793.450        65.721         5.678        34.431
  Exfiltration Loss ........         0.000         0.000         0.000         0.000         0.000
  Mass Reacted .............         0.000         0.000         0.000         0.000         0.000
  Initial Stored Mass ......         0.000         0.000         0.000         0.000         0.000
  Final Stored Mass ........       576.531      1002.584        24.762         2.623        14.283
  Continuity Error (%) .....         1.820         1.717         1.039         0.748         0.911
  
  
  *************************
  Highest Continuity Errors
  *************************
  Node HS02004842 (13.41%)
  Node YS02001884 (10.98%)
  Node JK-storage (-9.95%)
  Node HS02004817 (2.53%)
  Node YSB1171 (2.46%)
  
  
  ***************************
  Time-Step Critical Elements
  ***************************
  Link WS02006252WS02006251 (47.25%)
  Link WS02006280WS02006229 (14.60%)
  Link WS02006238WS02006235 (12.17%)
  Link YS02001793JiankangQianchi (4.60%)
  Link YS02006556YS02006558 (3.42%)
  
  
  ********************************
  Highest Flow Instability Indexes
  ********************************
  Link WS02006113WS02006111 (53)
  Link YS02163601YS02164001 (28)
  Link YS02163301YS02001633 (28)
  Link YS02001629YS02163301 (28)
  Link YS02001619YS02001622 (27)
  
  
  *************************
  Routing Time Step Summary
  *************************
  Minimum Time Step           :     0.50 sec
  Average Time Step           :     1.52 sec
  Maximum Time Step           :     5.00 sec
  Percent in Steady State     :    -0.00
  Average Iterations per Step :     3.78
  Percent Not Converging      :    14.38
  
  
  ***************************
  Subcatchment Runoff Summary
  ***************************
  
  ------------------------------------------------------------------------------------------------------------------------------
                            Total      Total      Total      Total     Imperv       Perv      Total       Total     Peak  Runoff
                           Precip      Runon       Evap      Infil     Runoff     Runoff     Runoff      Runoff   Runoff   Coeff
  Subcatchment                 mm         mm         mm         mm         mm         mm         mm    10^6 ltr      LPS
  ------------------------------------------------------------------------------------------------------------------------------
  sub0                      13.45       0.00       0.00       0.63      12.47       0.31      12.77        0.01     3.75   0.950
  sub1                      13.45       0.00       0.00       1.12      11.88       0.36      12.24        0.08    25.66   0.910
  sub2                      13.45       0.00       0.00       4.44       8.39       0.53       8.92        0.08    25.29   0.663
  sub3                      13.45       0.00       0.00       4.56       8.35       0.42       8.77        0.20    55.75   0.652
  sub4                      13.45       0.00       0.00       1.22      11.71       0.26      11.97        0.25    65.52   0.890
  sub5                      13.45       0.00       0.00       0.68      12.41       0.26      12.67        0.14    44.76   0.942
  sub7                      13.45       0.00       0.00       0.86      12.18       0.35      12.53        0.04    14.26   0.931
  sub8                      13.45       0.00       0.00       0.87      12.17       0.34      12.50        0.08    26.26   0.930
  sub9                      13.45       0.00       0.00       0.88      12.17       0.33      12.50        0.06    19.64   0.929
  sub10                     13.45       0.00       0.00       0.78      12.29       0.29      12.58        0.14    44.00   0.935
  sub11                     13.45       0.00       0.00       0.77      12.30       0.31      12.61        0.15    48.45   0.938
  sub12                     13.45       0.00       0.00       1.25      11.66       0.50      12.16        0.11    38.10   0.904
  sub14                     13.45       0.00       0.00       0.88      12.16       0.33      12.49        0.12    38.67   0.929
  sub15                     13.45       0.00       0.00       3.37       9.35       0.66      10.01        0.17    57.01   0.744
  sub16                     13.45       0.00       0.00       3.56       8.97       0.88       9.85        0.10    37.63   0.732
  sub17                     13.45       0.00       0.00       3.47       9.10       0.84       9.94        0.09    30.67   0.739
  sub22                     13.45       0.00       0.00       4.98       7.63       0.81       8.43        0.53   184.54   0.627
  sub23                     13.45       0.00       0.00       4.17       8.43       0.81       9.24        0.44   154.22   0.687
  sub60                     13.45       0.00       0.00       1.53       9.85       0.09       9.93        3.01   438.14   0.738
  sub61                     13.45       0.00       0.00       2.16       9.95       0.12      10.07        3.11   536.45   0.749
  sub62                     13.45       0.00       0.00       0.98      10.84       0.10      10.94        3.36   552.35   0.813
  sub63                     13.45       0.00       0.00       3.77       8.69       0.14       8.83        2.67   492.63   0.656
  sub64                     13.45       0.00       0.00       1.93       9.45       0.09       9.54        2.90   416.72   0.709
  sub65                     13.45       0.00       0.00       1.67       9.61       0.08       9.70        2.98   423.09   0.721
  sub66                     13.45       0.00       0.00       3.81       8.10       0.09       8.18        2.51   380.66   0.608
  sub67                     13.45       0.00       0.00       0.95      11.38       0.13      11.51        3.55   679.52   0.856
  sub68                     13.45       0.00       0.00       1.75      10.45       0.13      10.59        3.26   586.26   0.787
  sub69                     13.45       0.00       0.00       1.83      10.79       0.19      10.98        2.57   544.72   0.816
  sub70                     13.45      11.20       0.00       7.51      14.65       0.88      15.52        3.55   494.81   0.630
  sub71                     13.45       0.00       0.00       0.99      10.58       0.09      10.67        2.52   389.24   0.793
  sub72                     13.45       0.00       0.00       0.89       8.56       0.05       8.61        1.75   189.18   0.640
  1                         13.45      15.11       0.00       1.37      16.56       4.63      21.19        4.98   484.42   0.742
  2                         13.45       0.00       0.00       3.02       3.21       1.96       5.17        2.07   340.45   0.384
  
  
  ****************************
  Subcatchment Washoff Summary
  ****************************
  
  ------------------------------------------------------------------------------------------
                                 COD            SS            TN            TP         NH4-N
  Subcatchment                    kg            kg            kg            kg            kg
  ------------------------------------------------------------------------------------------
  sub0                         2.670         5.197         0.046         0.004         0.022
  sub1                        11.241        22.423         0.210         0.015         0.101
  sub2                         6.894        13.384         0.145         0.010         0.067
  sub3                        16.924        32.573         0.350         0.024         0.161
  sub4                        25.772        51.904         0.510         0.031         0.245
  sub5                        25.778        50.682         0.460         0.035         0.223
  sub7                         5.751        11.638         0.108         0.007         0.052
  sub8                         8.581        17.755         0.171         0.010         0.082
  sub9                         7.353        15.005         0.142         0.009         0.068
  sub10                       21.202        42.223         0.389         0.028         0.188
  sub11                       20.657        41.614         0.386         0.026         0.187
  sub12                       17.724        35.094         0.321         0.024         0.155
  sub14                       15.732        31.800         0.298         0.020         0.144
  sub15                       20.231        39.321         0.389         0.028         0.182
  sub16                       13.129        25.518         0.249         0.019         0.117
  sub17                       12.049        23.208         0.222         0.017         0.105
  sub22                       62.582       119.432         1.186         0.090         0.554
  sub23                       36.683        72.439         0.776         0.051         0.357
  sub60                      243.520       456.962         4.842         0.298         2.321
  sub61                      302.151       564.434         5.627         0.386         2.710
  sub62                      313.722       596.076         6.119         0.388         2.938
  sub63                      223.275       410.850         4.468         0.314         2.075
  sub64                      305.877       553.773         5.626         0.410         2.687
  sub65                      313.037       569.066         5.795         0.415         2.772
  sub66                      176.068       321.340         3.608         0.236         1.687
  sub67                      466.222       877.505         8.365         0.616         4.045
  sub68                      332.037       626.413         6.347         0.429         3.034
  sub69                      298.258       568.561         5.590         0.393         2.674
  sub70                      502.897       962.303        10.037         0.699         4.710
  sub71                      206.745       396.330         4.242         0.246         2.030
  sub72                      164.385       293.107         3.069         0.210         1.476
  1                          349.075       671.606         7.102         0.495         3.297
  2                           42.749        75.577         1.214         0.073         0.518
  ------------------------------------------------------------------------------------------
  System                    4570.974      8595.115        88.408         6.057        41.983
  
  
  ******************
  Node Depth Summary
  ******************
  
  ---------------------------------------------------------------------------------
                                 Average  Maximum  Maximum  Time of Max    Reported
                                   Depth    Depth      HGL   Occurrence   Max Depth
  Node                 Type       Meters   Meters   Meters  days hr:min      Meters
  ---------------------------------------------------------------------------------
  WS02001211           JUNCTION     0.76     0.84     5.68     0  03:08        0.84
  WS02001212           JUNCTION     0.47     0.57     5.64     0  03:08        0.57
  WS02001213           JUNCTION     0.70     0.85     5.61     0  03:08        0.85
  WS02003069           JUNCTION     0.49     0.71     5.29     0  03:06        0.71
  WS02003072           JUNCTION     0.55     0.75     5.13     0  03:06        0.75
  WS02003073           JUNCTION     0.33     0.47     4.54     0  03:07        0.47
  WS02003060           JUNCTION     0.43     0.63     5.56     0  03:05        0.63
  WS02003066           JUNCTION     0.23     0.39     5.94     0  03:04        0.39
  WS02003059           JUNCTION     0.75     0.90     5.59     0  03:08        0.90
  WS02003067           JUNCTION     0.56     0.82     6.14     0  03:03        0.82
  WS02004401           JUNCTION     0.67     1.32     7.32     0  03:01        1.24
  WS02004402           JUNCTION     0.70     1.30     7.26     0  03:01        1.23
  WS02004403           JUNCTION     0.72     1.28     7.21     0  03:01        1.20
  WS02004404           JUNCTION     0.80     1.31     7.16     0  03:01        1.24
  WS02004406           JUNCTION     0.80     1.23     7.06     0  03:01        1.17
  WS02004409           JUNCTION     0.48     0.96     6.73     0  03:04        0.96
  WS02004410           JUNCTION     0.50     0.95     6.67     0  03:03        0.95
  WS02004411           JUNCTION     0.52     0.93     6.61     0  03:04        0.93
  WS02004412           JUNCTION     0.53     0.90     6.54     0  03:04        0.90
  WS02004413           JUNCTION     0.69     1.03     6.50     0  03:03        1.02
  WS02004405           JUNCTION     0.79     1.27     7.12     0  03:01        1.22
  WS02006109           JUNCTION     0.76     1.71     8.33     0  03:02        1.68
  WS02006110           JUNCTION     0.75     1.50     8.09     0  03:02        1.48
  WS02006111           JUNCTION     0.23     0.94     7.65     0  03:01        0.91
  WS02006112           JUNCTION     0.85     1.61     7.49     0  03:01        1.57
  WS02006113           JUNCTION     0.34     0.97     7.87     0  03:02        0.95
  WS02006115           JUNCTION     0.57     1.30     7.44     0  03:01        1.23
  WS02006116           JUNCTION     0.65     1.36     7.40     0  03:01        1.27
  WS02006230           JUNCTION     0.74     1.93     8.68     0  03:02        1.91
  WS02006231           JUNCTION     0.49     1.57     8.69     0  03:02        1.55
  WS02006232           JUNCTION     0.62     1.67     8.71     0  03:02        1.64
  WS02006234           JUNCTION     0.54     1.57     8.72     0  03:02        1.55
  WS02006235           JUNCTION     0.57     1.58     8.74     0  03:02        1.55
  WS02006238           JUNCTION     0.59     1.59     8.74     0  03:02        1.57
  WS02006240           JUNCTION     0.49     1.43     8.72     0  03:02        1.41
  WS02006242           JUNCTION     0.53     1.45     8.72     0  03:02        1.44
  WS02006243           JUNCTION     0.41     1.33     8.75     0  07:22        1.28
  WS02006245           JUNCTION     0.38     1.26     8.74     0  04:11        1.20
  WS02006247           JUNCTION     0.39     1.24     8.74     0  04:11        1.19
  WS02006248           JUNCTION     0.33     1.10     8.69     0  03:01        1.10
  WS02006249           JUNCTION     0.35     1.09     8.69     0  03:01        1.09
  WS02006239           JUNCTION     0.54     1.52     8.73     0  03:02        1.50
  WS02006251           JUNCTION     0.32     1.38     9.05     0  03:01        1.16
  WS02006252           JUNCTION     0.21     0.82     9.07     0  03:01        0.72
  WS02006253           JUNCTION     0.35     1.50     9.14     0  03:01        1.19
  WS02006256           JUNCTION     1.63     2.35     9.28     0  00:18        2.35
  WS02004138           JUNCTION     0.19     0.20     7.45     0  00:00        0.19
  WS02004139           JUNCTION     0.71     0.79     5.70     0  03:08        0.79
  WS02004407           JUNCTION     0.22     0.40     6.71     0  03:03        0.40
  WS02006228           JUNCTION     0.77     1.88     8.53     0  03:02        1.86
  WS02006229           JUNCTION     0.75     1.96     8.66     0  03:02        1.94
  WS02006280           JUNCTION     0.08     0.32     8.59     0  03:01        0.30
  WS02006284           JUNCTION     0.38     0.65     9.04     0  03:02        0.64
  WS02006287           JUNCTION     0.11     0.39     9.34     0  03:01        0.39
  WSF200               JUNCTION     0.21     0.44     5.67     0  03:04        0.44
  HS02004901           JUNCTION     0.13     0.38    10.20     0  03:01        0.37
  HS02004881           JUNCTION     0.01     0.05     9.08     0  03:01        0.05
  HS02004876           JUNCTION     0.05     0.16     9.19     0  03:01        0.16
  HS02004870           JUNCTION     0.02     0.09     9.38     0  03:01        0.09
  HS02004862           JUNCTION     0.02     0.11     9.49     0  03:01        0.11
  HS02004856           JUNCTION     0.08     0.15     9.58     0  03:01        0.15
  HS02004852           JUNCTION     0.01     0.07     9.59     0  03:02        0.07
  HS02004848           JUNCTION     0.01     0.07     9.67     0  03:01        0.07
  HS02004842           JUNCTION     0.34     0.40     9.67     0  03:01        0.40
  HS02004837           JUNCTION     0.03     0.09     9.67     0  03:01        0.09
  HS02004830           JUNCTION     0.04     0.10     9.57     0  03:01        0.10
  HS02004824           JUNCTION     0.03     0.13     9.53     0  03:02        0.13
  HS02004817           JUNCTION     0.45     0.69     9.54     0  03:02        0.69
  HS02004807           JUNCTION     0.13     0.36     9.53     0  03:02        0.36
  HS02004802           JUNCTION     0.17     0.39     9.52     0  03:02        0.39
  HS02004799           JUNCTION     0.13     0.46     9.68     0  03:01        0.46
  HS02004792           JUNCTION     0.04     0.22     9.74     0  03:01        0.21
  HS02004788           JUNCTION     0.03     0.16    10.05     0  03:02        0.16
  HS02004785           JUNCTION     0.05     0.25    10.15     0  03:02        0.25
  HS02004777           JUNCTION     0.16     0.39    10.19     0  03:01        0.39
  HS02004770           JUNCTION     0.13     0.37    10.20     0  03:01        0.36
  HS02004480           JUNCTION     0.09     0.38     9.62     0  03:01        0.38
  HS02004479           JUNCTION     0.13     0.42     9.62     0  03:01        0.42
  HS02004478           JUNCTION     0.07     0.28     9.50     0  03:01        0.28
  YS02001745           JUNCTION     0.71     0.96     8.48     0  03:00        0.96
  YS02001748           JUNCTION     1.10     1.52     8.60     0  02:33        1.39
  YS02001751           JUNCTION     1.27     1.59     8.47     0  03:00        1.57
  YS02001754           JUNCTION     1.52     1.85     8.45     0  03:01        1.83
  YS02001762           JUNCTION     1.72     2.05     8.45     0  03:00        2.03
  YS02001765           JUNCTION     1.67     2.00     8.45     0  03:00        1.98
  YS02001767           JUNCTION     1.64     1.95     8.44     0  03:01        1.94
  YS02001770           JUNCTION     1.63     1.94     8.44     0  03:00        1.93
  YS02001774           JUNCTION     1.70     2.00     8.42     0  03:01        1.98
  YS02001779           JUNCTION     1.45     1.68     8.37     0  02:41        1.68
  YS02001882           JUNCTION     0.57     1.64     8.36     0  02:47        1.63
  YS02001884           JUNCTION     0.66     1.74     8.35     0  02:47        1.73
  YS02001759           JUNCTION     1.75     2.09     8.45     0  03:00        2.07
  YS02001887           JUNCTION     0.74     1.81     8.35     0  03:00        1.81
  YS02001890           JUNCTION     0.77     1.81     8.32     0  02:47        1.81
  YS02001898           JUNCTION     0.54     1.57     8.31     0  02:47        1.55
  YS02001901           JUNCTION     0.65     1.68     8.29     0  02:47        1.67
  YS02001904           JUNCTION     0.63     1.64     8.27     0  02:47        1.63
  YS02001907           JUNCTION     0.96     1.96     8.25     0  02:47        1.96
  YS02001910           JUNCTION     0.75     1.80     8.31     0  02:48        1.78
  YS02001915           JUNCTION     0.55     1.63     8.35     0  02:48        1.59
  YS02001918           JUNCTION     0.29     1.35     8.41     0  02:48        1.27
  YS02001619           JUNCTION     1.24     1.61     8.54     0  02:32        1.50
  YS02001629           JUNCTION     1.58     1.85     8.40     0  02:32        1.84
  YS02001641           JUNCTION     1.68     1.94     8.37     0  02:57        1.93
  YS02001644           JUNCTION     1.68     1.92     8.35     0  02:39        1.92
  YS02001652           JUNCTION     1.53     1.99     8.59     0  02:43        1.87
  YS02001655           JUNCTION     1.30     1.86     8.71     0  02:43        1.65
  YS02001920           JUNCTION     0.39     1.44     8.45     0  02:48        1.35
  YS02001923           JUNCTION     0.23     1.22     8.48     0  02:48        1.12
  YS02001926           JUNCTION     0.29     1.24     8.69     0  02:48        0.90
  YS02001929           JUNCTION     0.17     0.76     8.45     0  02:48        0.75
  YS02001658           JUNCTION     1.04     1.65     8.79     0  02:43        1.42
  YS02001661           JUNCTION     0.82     1.72     9.12     0  02:43        1.25
  YS02001664           JUNCTION     0.37     0.58     8.50     0  02:42        0.55
  YS02001622           JUNCTION     1.26     1.62     8.52     0  02:32        1.51
  YS02001633           JUNCTION     1.67     1.95     8.40     0  02:58        1.94
  YS02001649           JUNCTION     1.73     2.05     8.44     0  02:42        2.04
  YS02001757           JUNCTION     1.85     2.18     8.44     0  03:01        2.17
  YS02001895           JUNCTION     0.53     1.57     8.32     0  02:47        1.56
  YS02001625           JUNCTION     1.54     1.78     8.38     0  02:31        1.78
  YS02163301           JUNCTION     1.61     1.90     8.42     0  02:32        1.88
  YS02163601           JUNCTION     1.72     1.99     8.39     0  03:00        1.98
  YS02164001           JUNCTION     1.66     1.92     8.38     0  02:39        1.91
  YS02001647           JUNCTION     1.52     1.80     8.41     0  02:50        1.79
  YSB1154              JUNCTION     0.27     0.57     9.62     0  03:01        0.57
  YSB6556              JUNCTION     0.16     0.45     9.62     0  03:01        0.45
  YSB1174              JUNCTION     0.22     0.51     9.62     0  03:01        0.51
  YSB1171              JUNCTION     0.42     0.72     9.62     0  03:01        0.72
  YS02006553           JUNCTION     0.96     1.97     8.26     0  02:58        1.97
  YS02006561           JUNCTION     0.32     1.10     7.76     0  02:47        1.09
  YS02006556           JUNCTION     0.93     1.93     8.24     0  02:59        1.93
  YS02006558           JUNCTION     0.97     1.98     8.24     0  03:00        1.97
  YS02001783           JUNCTION     0.55     1.49     7.63     0  02:47        1.47
  YS02001784           JUNCTION     0.57     1.68     7.75     0  02:43        1.42
  YS02001786           JUNCTION     0.51     1.89     7.92     0  02:43        1.26
  YS02001788           JUNCTION     0.44     1.81     7.79     0  02:43        1.13
  YS02001790           JUNCTION     0.57     1.96     7.60     0  02:42        1.29
  YS02001791           JUNCTION     0.53     2.02     7.49     0  02:42        1.27
  YS02001793           JUNCTION     0.71     3.60     8.43     0  04:38        1.80
  WSC                  OUTFALL      0.33     0.47     1.14     0  03:07        0.47
  JK-storage           STORAGE      2.81     5.80     6.60     0  02:43        5.80
  CC-storage           STORAGE      1.11     1.43     8.43     0  03:24        1.43
  XR-storage           STORAGE      6.50     7.72     5.72     0  02:57        7.72
  
  
  *******************
  Node Inflow Summary
  *******************
  
  -------------------------------------------------------------------------------------------------
                                  Maximum  Maximum                  Lateral       Total        Flow
                                  Lateral    Total  Time of Max      Inflow      Inflow     Balance
                                   Inflow   Inflow   Occurrence      Volume      Volume       Error
  Node                 Type           LPS      LPS  days hr:min    10^6 ltr    10^6 ltr     Percent
  -------------------------------------------------------------------------------------------------
  WS02001211           JUNCTION      7.35   390.58     0  03:27       0.207          10       0.401
  WS02001212           JUNCTION      0.00   393.85     0  03:25           0        9.99       0.241
  WS02001213           JUNCTION      0.00   396.93     0  03:26           0        9.96       0.283
  WS02003069           JUNCTION      0.32  1303.31     0  03:06     0.00902        18.2       0.181
  WS02003072           JUNCTION      0.00  1303.23     0  03:06           0        18.2       0.221
  WS02003073           JUNCTION      1.82  1306.45     0  03:06      0.0514        18.2       0.258
  WS02003060           JUNCTION     16.53  1303.27     0  03:05       0.466        18.3       0.169
  WS02003066           JUNCTION      0.00   939.07     0  03:04           0        7.91       0.050
  WS02003059           JUNCTION      0.00   401.15     0  03:26           0        9.94       0.402
  WS02003067           JUNCTION      0.00   937.65     0  03:04           0        7.92       0.106
  WS02004401           JUNCTION      0.00   950.64     0  03:03           0        8.11       0.204
  WS02004402           JUNCTION      0.00   950.42     0  03:03           0         8.1       0.198
  WS02004403           JUNCTION      0.00   950.40     0  03:03           0        8.08       0.186
  WS02004404           JUNCTION      0.16   951.36     0  03:03     0.00457        8.07       0.145
  WS02004406           JUNCTION      0.00   952.04     0  03:03           0        8.04       0.357
  WS02004409           JUNCTION      0.00   950.96     0  03:03           0        8.01       0.158
  WS02004410           JUNCTION      0.00   941.91     0  03:03           0           8       0.188
  WS02004411           JUNCTION      0.00   933.87     0  03:03           0        7.98       0.200
  WS02004412           JUNCTION      0.00   935.51     0  03:04           0        7.97       0.223
  WS02004413           JUNCTION      0.00   937.04     0  03:04           0        7.95       0.340
  WS02004405           JUNCTION      0.04   951.88     0  03:03     0.00107        8.06       0.216
  WS02006109           JUNCTION      1.23   927.98     0  03:02      0.0347        8.11       0.092
  WS02006110           JUNCTION      0.00   927.94     0  03:02           0         8.1       0.166
  WS02006111           JUNCTION      0.00   927.88     0  03:02           0        8.08       0.021
  WS02006112           JUNCTION     30.67   951.01     0  03:02      0.0853        8.16       0.299
  WS02006113           JUNCTION      0.00   927.73     0  03:02           0        8.09       0.060
  WS02006115           JUNCTION      0.00   950.75     0  03:03           0        8.14       0.172
  WS02006116           JUNCTION      0.00   950.71     0  03:03           0        8.13       0.147
  WS02006230           JUNCTION     10.28   502.47     0  07:22        0.29        5.66       0.141
  WS02006231           JUNCTION      0.00   489.89     0  04:13           0        5.37      -0.007
  WS02006232           JUNCTION      0.00   489.91     0  04:13           0        5.38       0.174
  WS02006234           JUNCTION      0.00   489.90     0  04:13           0        5.38      -0.032
  WS02006235           JUNCTION      0.00   489.91     0  04:13           0        5.47       0.120
  WS02006238           JUNCTION      0.00   334.08     0  04:43           0        2.03      -0.205
  WS02006240           JUNCTION      0.00   344.72     0  04:42           0        1.97       0.036
  WS02006242           JUNCTION      0.00   353.75     0  04:42           0        1.95       0.125
  WS02006243           JUNCTION      0.00   362.62     0  04:41           0        1.92      -0.133
  WS02006245           JUNCTION      0.00   367.98     0  04:41           0         1.9       0.289
  WS02006247           JUNCTION      0.00   372.45     0  04:41           0        1.89       0.025
  WS02006248           JUNCTION      0.00   377.49     0  04:41           0        1.89      -0.077
  WS02006249           JUNCTION      0.00   478.61     0  03:10           0        2.04       0.131
  WS02006239           JUNCTION      0.00   336.22     0  04:42           0           2      -0.258
  WS02006251           JUNCTION      0.08   477.00     0  03:10     0.00217        2.08      -0.037
  WS02006252           JUNCTION      0.00   399.95     0  03:10           0        1.56       0.010
  WS02006253           JUNCTION      3.75   144.89     0  03:01      0.0103       0.514      -0.100
  WS02006256           JUNCTION      0.00   983.00     0  02:20           0        9.72       0.017
  WS02004138           JUNCTION      0.00   380.00     0  00:00           0        9.86       0.069
  WS02004139           JUNCTION      0.32   394.45     0  00:00     0.00905        9.86       0.460
  WS02004407           JUNCTION      0.00   952.54     0  03:03           0        8.01       0.065
  WS02006228           JUNCTION      0.00   926.73     0  03:02           0        8.08       0.059
  WS02006229           JUNCTION      0.00   966.90     0  03:01           0        8.09       0.126
  WS02006280           JUNCTION      0.00   679.96     0  03:02           0        2.43       0.015
  WS02006284           JUNCTION      0.10   678.82     0  03:02      0.0027        2.43       0.045
  WS02006287           JUNCTION      0.00   677.51     0  03:02           0        2.43       0.032
  WSF200               JUNCTION      0.00   939.59     0  03:04           0        7.91       0.045
  HS02004901           JUNCTION     37.63    37.63     0  03:01       0.103       0.103       1.742
  HS02004881           JUNCTION     14.26   140.51     0  03:01      0.0422       0.463       0.090
  HS02004876           JUNCTION     25.66   127.61     0  03:01      0.0814       0.422       0.130
  HS02004870           JUNCTION     26.26   103.55     0  03:01      0.0799        0.34       0.035
  HS02004862           JUNCTION     25.49    79.35     0  03:01      0.0888       0.261       0.068
  HS02004856           JUNCTION     19.64    55.39     0  03:01      0.0601       0.173       0.845
  HS02004852           JUNCTION      0.00    37.83     0  03:01           0       0.113       0.053
  HS02004848           JUNCTION     55.75    55.75     0  03:01       0.197       0.197       0.029
  HS02004842           JUNCTION      0.00    16.84     0  03:01           0       0.097      15.491
  HS02004837           JUNCTION     50.35    65.69     0  03:01       0.318       0.402       0.204
  HS02004830           JUNCTION      0.15    64.77     0  03:01     0.00423       0.392       0.316
  HS02004824           JUNCTION     65.57   128.43     0  03:01       0.251       0.642       0.086
  HS02004817           JUNCTION      0.60   124.45     0  03:01      0.0169       0.658       2.599
  HS02004807           JUNCTION     48.45   165.79     0  03:01       0.147       0.788       0.555
  HS02004802           JUNCTION      0.00   165.31     0  03:04           0       0.785       0.506
  HS02004799           JUNCTION     38.67   445.85     0  03:01       0.119        1.42       0.191
  HS02004792           JUNCTION    184.82   411.78     0  03:01        0.54         1.3       0.034
  HS02004788           JUNCTION     58.68   233.47     0  03:02       0.219       0.758       0.053
  HS02004785           JUNCTION      0.15   182.19     0  03:01     0.00423        0.54       0.094
  HS02004777           JUNCTION      0.03   184.98     0  03:01    0.000846       0.541       0.972
  HS02004770           JUNCTION    154.22   188.92     0  03:01       0.441       0.542       0.578
  HS02004480           JUNCTION      0.00   517.04     0  03:01           0        1.66       0.068
  HS02004479           JUNCTION      0.00    75.51     0  03:02           0       0.258       0.287
  HS02004478           JUNCTION      0.00   676.98     0  03:02           0        2.43       0.011
  YS02001745           JUNCTION    438.14   438.14     0  03:01        3.01        3.02       0.378
  YS02001748           JUNCTION      0.04   561.32     0  02:32     0.00127        3.01       0.724
  YS02001751           JUNCTION      0.01   442.03     0  03:01     0.00031        2.98       0.796
  YS02001754           JUNCTION      0.26   442.35     0  03:01     0.00733        2.96       0.846
  YS02001762           JUNCTION      0.00   316.41     0  02:42           0        2.14       0.999
  YS02001765           JUNCTION      0.00   316.40     0  02:42           0        2.15       1.156
  YS02001767           JUNCTION      0.54   316.62     0  02:42      0.0151        2.17       1.684
  YS02001770           JUNCTION    552.50   708.67     0  03:05        3.37        4.18       0.768
  YS02001774           JUNCTION      0.00   708.58     0  03:04           0         2.8       0.915
  YS02001779           JUNCTION      0.01   708.81     0  03:04    0.000141        2.77       0.562
  YS02001882           JUNCTION      0.00    14.13     0  02:44           0      0.0179      12.586
  YS02001884           JUNCTION      0.00    26.59     0  02:44           0      0.0541      12.329
  YS02001759           JUNCTION    536.49   622.23     0  02:42        3.11        4.41       0.523
  YS02001887           JUNCTION    679.97   679.98     0  03:01        3.57         3.6       0.231
  YS02001890           JUNCTION      0.00   680.27     0  03:01           0        3.55       0.250
  YS02001898           JUNCTION      0.00   517.49     0  02:57           0        3.45       0.082
  YS02001901           JUNCTION      0.00   517.70     0  03:04           0        3.45       0.192
  YS02001904           JUNCTION      0.00   517.34     0  03:04           0        3.44       0.163
  YS02001907           JUNCTION      0.00  1109.04     0  03:02           0        7.77       0.293
  YS02001910           JUNCTION      0.00   592.77     0  03:02           0        4.34       0.269
  YS02001915           JUNCTION    389.26   592.26     0  03:01        2.52        4.38       0.134
  YS02001918           JUNCTION      0.00   281.75     0  02:49           0        1.89       0.085
  YS02001619           JUNCTION    380.66   380.66     0  03:01        2.51        2.51       0.487
  YS02001629           JUNCTION      0.00   196.55     0  02:39           0        1.59       1.858
  YS02001641           JUNCTION      0.00   415.24     0  02:39           0        4.45       0.485
  YS02001644           JUNCTION    416.76  1563.78     0  03:01         2.9        12.2       0.221
  YS02001652           JUNCTION      0.00   500.44     0  03:01           0        2.62       0.913
  YS02001655           JUNCTION      0.15   500.72     0  03:01     0.00434        2.64       0.926
  YS02001920           JUNCTION      2.87   281.78     0  02:49      0.0809        1.87       0.147
  YS02001923           JUNCTION      0.04   292.13     0  02:49     0.00106        1.78       0.040
  YS02001926           JUNCTION      0.05   292.73     0  02:47     0.00147        1.76       0.169
  YS02001929           JUNCTION    189.18   206.59     0  02:47        1.75        1.75       0.039
  YS02001658           JUNCTION      0.00   593.96     0  02:29           0        2.67       0.804
  YS02001661           JUNCTION      0.00   675.72     0  02:43           0        2.84       0.287
  YS02001664           JUNCTION    492.63   492.63     0  03:01        2.67        2.84       0.211
  YS02001622           JUNCTION      0.00   380.99     0  03:01           0         2.5       1.283
  YS02001633           JUNCTION    423.29   423.29     0  03:01        2.99        4.52       0.717
  YS02001649           JUNCTION      0.00   873.05     0  02:40           0        6.89       0.543
  YS02001757           JUNCTION      0.00  1678.66     0  02:41           0        8.87       1.045
  YS02001895           JUNCTION      0.00   517.29     0  03:04           0        3.45       0.147
  YS02001625           JUNCTION      0.00   406.98     0  03:01           0        2.48       1.592
  YS02163301           JUNCTION      0.00   211.28     0  02:32           0        1.57       1.559
  YS02163601           JUNCTION      0.11   413.60     0  02:39      0.0031        4.48       0.677
  YS02164001           JUNCTION      0.00   414.15     0  02:39           0        4.46       0.456
  YS02001647           JUNCTION      0.00   771.19     0  03:07           0        6.18       0.466
  YSB1154              JUNCTION     44.76    44.76     0  03:01       0.144       0.144       1.018
  YSB6556              JUNCTION      0.00    43.26     0  03:01           0       0.145       0.869
  YSB1174              JUNCTION     38.10    38.10     0  03:01       0.106       0.107       1.222
  YSB1171              JUNCTION      0.00    76.88     0  03:01           0       0.257       2.527
  YS02006553           JUNCTION      0.00   710.44     0  03:46           0        6.71       0.217
  YS02006561           JUNCTION      0.00   980.94     0  03:22           0        9.93       0.002
  YS02006556           JUNCTION      0.00   710.28     0  03:46           0        6.71       0.147
  YS02006558           JUNCTION    587.14   981.85     0  03:22        3.28        9.96       0.050
  YS02001783           JUNCTION      0.00   981.18     0  03:22           0        9.93       0.021
  YS02001784           JUNCTION      1.06   982.22     0  03:22      0.0299        9.96       0.036
  YS02001786           JUNCTION      0.06   982.16     0  03:22     0.00159        9.96       0.033
  YS02001788           JUNCTION      0.07   982.38     0  03:22       0.002        9.96       0.022
  YS02001790           JUNCTION      0.15   982.49     0  03:22     0.00437        9.96       0.013
  YS02001791           JUNCTION      0.00   982.56     0  03:21           0        9.96       0.006
  YS02001793           JUNCTION      0.00   982.69     0  03:22           0        9.96      -0.014
  WSC                  OUTFALL       0.00  1309.43     0  03:07           0        18.2       0.000
  JK-storage           STORAGE       0.00  1015.16     0  02:41           0        10.1      -9.051
  CC-storage           STORAGE       0.00  1678.65     0  02:41           0        5.78       1.138
  XR-storage           STORAGE    1024.87  1024.87     0  03:01        12.7        13.3      -0.003
  
  
  **********************
  Node Surcharge Summary
  **********************
  
  Surcharging occurs when water rises above the top of the highest conduit.
  ---------------------------------------------------------------------
                                               Max. Height   Min. Depth
                                   Hours       Above Crown    Below Rim
  Node                 Type      Surcharged         Meters       Meters
  ---------------------------------------------------------------------
  WS02004401           JUNCTION        0.37          0.317        1.343
  WS02004402           JUNCTION        0.39          0.302        1.438
  WS02004403           JUNCTION        0.39          0.279        1.751
  WS02004404           JUNCTION        0.61          0.311        2.469
  WS02004406           JUNCTION        0.46          0.227        2.223
  WS02004413           JUNCTION        0.12          0.025        2.175
  WS02004405           JUNCTION        0.53          0.274        2.526
  WS02006109           JUNCTION        2.20          0.887        0.933
  WS02006110           JUNCTION        1.10          0.592        1.258
  WS02006111           JUNCTION        0.08          0.133        1.737
  WS02006112           JUNCTION        1.27          0.611        1.069
  WS02006113           JUNCTION        0.09          0.174        1.756
  WS02006115           JUNCTION        0.28          0.291        1.959
  WS02006116           JUNCTION        0.30          0.305        1.985
  WS02006230           JUNCTION        0.52          0.853        0.717
  WS02006231           JUNCTION        0.74          0.861        0.669
  WS02006232           JUNCTION        1.91          0.972        0.508
  WS02006234           JUNCTION        1.14          0.846        0.394
  WS02006235           JUNCTION        1.43          0.866        0.424
  WS02006238           JUNCTION        1.50          0.875        0.555
  WS02006240           JUNCTION        0.77          0.719        0.671
  WS02006242           JUNCTION        0.80          0.721        0.099
  WS02006243           JUNCTION        0.61          0.616        0.154
  WS02006245           JUNCTION        0.55          0.548        0.302
  WS02006247           JUNCTION        0.54          0.531        0.229
  WS02006248           JUNCTION        0.44          0.380        0.000
  WS02006249           JUNCTION        0.48          0.390        0.000
  WS02006239           JUNCTION        0.98          0.782        0.508
  WS02006251           JUNCTION        0.23          0.346        0.834
  WS02006252           JUNCTION        0.83          0.423        0.677
  WS02006253           JUNCTION        0.24          0.461        2.019
  WS02006256           JUNCTION        6.80          2.050        0.000
  WS02006228           JUNCTION        2.17          1.054        1.146
  YS02001748           JUNCTION        5.22          0.439        0.751
  YS02001751           JUNCTION        5.37          0.590        0.610
  YS02001754           JUNCTION        5.57          0.796        0.354
  YS02001762           JUNCTION        5.75          1.054        0.096
  YS02001765           JUNCTION        5.72          0.998        0.102
  YS02001767           JUNCTION        5.70          0.954        0.076
  YS02001770           JUNCTION        5.68          0.912        0.008
  YS02001774           JUNCTION        5.74          0.996        0.054
  YS02001779           JUNCTION        5.56          0.680        0.000
  YS02001882           JUNCTION        1.07          0.644        0.186
  YS02001884           JUNCTION        1.10          0.678        0.192
  YS02001759           JUNCTION        5.78          1.085        0.125
  YS02001887           JUNCTION        1.18          0.764        0.186
  YS02001890           JUNCTION        1.20          0.760        0.000
  YS02001898           JUNCTION        1.04          0.545        0.195
  YS02001901           JUNCTION        1.14          0.680        0.190
  YS02001904           JUNCTION        1.11          0.639        0.211
  YS02001907           JUNCTION        1.90          0.950        0.000
  YS02001910           JUNCTION        1.25          0.800        0.300
  YS02001915           JUNCTION        1.07          0.632        0.368
  YS02001918           JUNCTION        0.91          0.348        0.462
  YS02001619           JUNCTION        5.37          0.610        0.000
  YS02001629           JUNCTION        5.38          0.470        0.000
  YS02001641           JUNCTION        5.73          0.936        0.164
  YS02001644           JUNCTION        5.73          0.920        0.000
  YS02001652           JUNCTION        5.61          0.961        0.169
  YS02001655           JUNCTION        5.39          0.860        0.340
  YS02001920           JUNCTION        0.94          0.441        0.699
  YS02001923           JUNCTION        0.01          0.011        0.809
  YS02001926           JUNCTION        0.01          0.244        0.656
  YS02001658           JUNCTION        5.25          0.648        0.652
  YS02001661           JUNCTION        0.08          0.647        0.743
  YS02001622           JUNCTION        5.41          0.620        0.000
  YS02001633           JUNCTION        5.71          0.926        0.134
  YS02001649           JUNCTION        5.76          1.050        0.000
  YS02001757           JUNCTION        5.86          1.182        0.028
  YS02001895           JUNCTION        1.05          0.574        0.176
  YS02001625           JUNCTION        5.64          0.780        0.000
  YS02163301           JUNCTION        5.69          0.904        0.126
  YS02163601           JUNCTION        5.75          0.989        0.091
  YS02164001           JUNCTION        5.72          0.923        0.177
  YS02001647           JUNCTION        5.62          0.802        0.098
  YS02006553           JUNCTION        2.01          0.971        0.219
  YS02006561           JUNCTION        0.96          0.298        0.852
  YS02006556           JUNCTION        1.47          0.893        0.457
  YS02006558           JUNCTION        1.44          0.877        0.523
  YS02001783           JUNCTION        1.19          0.690        0.910
  YS02001784           JUNCTION        1.15          0.883        0.607
  YS02001786           JUNCTION        1.08          1.089        0.341
  YS02001788           JUNCTION        1.03          1.011        0.469
  YS02001790           JUNCTION        2.03          1.157        0.000
  YS02001791           JUNCTION        2.19          1.216        0.704
  YS02001793           JUNCTION        2.52          2.600        0.000
  
  
  *********************
  Node Flooding Summary
  *********************
  
  Flooding refers to all water that overflows a node, whether it ponds or not.
  --------------------------------------------------------------------------
                                                             Total   Maximum
                                 Maximum   Time of Max       Flood    Ponded
                        Hours       Rate    Occurrence      Volume     Depth
  Node                 Flooded       LPS   days hr:min    10^6 ltr    Meters
  --------------------------------------------------------------------------
  WS02006248              0.05     35.87      0  03:03       0.003     0.000
  WS02006249              0.23    273.44      0  03:10       0.151     0.000
  WS02006256              3.73    835.80      0  03:02       6.216     0.000
  YS02001779              2.98    708.81      0  03:04       2.751     0.000
  YS02001890              0.35    163.86      0  03:01       0.085     0.000
  YS02001907              0.78    717.41      0  03:01       1.058     0.000
  YS02001619              0.01     10.22      0  02:32       0.000     0.000
  YS02001629              0.01     32.75      0  02:32       0.000     0.000
  YS02001644              4.87   1563.01      0  03:01      10.803     0.000
  YS02001622              0.01     47.19      0  02:32       0.000     0.000
  YS02001649              0.01     21.54      0  02:43       0.000     0.000
  YS02001625              1.39    406.92      0  03:01       0.856     0.000
  YS02001790              0.01    148.21      0  02:42       0.000     0.000
  YS02001793              0.01    258.83      0  04:38       0.000     0.000
  JK-storage              1.00    966.11      0  02:49       1.335     0.000
  XR-storage              3.49    644.81      0  03:01       2.672     0.000
  
  
  **********************
  Storage Volume Summary
  **********************
  
  --------------------------------------------------------------------------------------------------
                         Average     Avg  Evap Exfil       Maximum     Max    Time of Max    Maximum
                          Volume    Pcnt  Pcnt  Pcnt        Volume    Pcnt     Occurrence    Outflow
  Storage Unit           1000 m3    Full  Loss  Loss       1000 m3    Full    days hr:min        LPS
  --------------------------------------------------------------------------------------------------
  JK-storage               0.141      49     0     0         0.291     100       0  02:43     983.00
  CC-storage               3.094      20     0     0         3.977      25       0  03:24     399.95
  XR-storage               0.780      84     0     0         0.926     100       0  02:57     380.00
  
  
  ***********************
  Outfall Loading Summary
  ***********************
  
  ---------------------------------------------------------------------------------------------------------------------------------
                         Flow       Avg       Max       Total         Total         Total         Total         Total         Total
                         Freq      Flow      Flow      Volume           COD            SS            TN            TP         NH4-N
  Outfall Node           Pcnt       LPS       LPS    10^6 ltr            kg            kg            kg            kg            kg
  ---------------------------------------------------------------------------------------------------------------------------------
  WSC                   99.99    703.83   1309.43      18.174      2236.460      3858.367       145.384        17.168        88.106
  ---------------------------------------------------------------------------------------------------------------------------------
  System                99.99    703.83   1309.43      18.174      2236.460      3858.367       145.384        17.168        88.106
  
  
  ********************
  Link Flow Summary
  ********************
  
  -----------------------------------------------------------------------------
                                 Maximum  Time of Max   Maximum    Max/    Max/
                                  |Flow|   Occurrence   |Veloc|    Full    Full
  Link                 Type          LPS  days hr:min     m/sec    Flow   Depth
  -----------------------------------------------------------------------------
  WS02003066WSF200     CONDUIT    939.59     0  03:04      3.00    0.16    0.32
  WS02006287WS02006284 CONDUIT    678.72     0  03:02      2.38    0.31    0.39
  WS02006284WS02006280 CONDUIT    679.96     0  03:02      2.62    0.28    0.37
  WS02006280WS02006229 CONDUIT    687.29     0  03:01      4.06    0.15    0.53
  WS02006229WS02006228 CONDUIT    926.73     0  03:02      1.84    3.07    1.00
  WS02006256WS02006235 CONDUIT    259.49     0  00:18      3.67    2.75    1.00
  WS02006253WS02006251 CONDUIT    157.85     0  03:01      0.69    0.47    1.00
  WS02006252WS02006251 CONDUIT    400.16     0  04:10      3.18    1.47    1.00
  WS02006251WS02006249 CONDUIT    478.61     0  03:10      1.24    1.38    1.00
  WS02006249WS02006248 CONDUIT    377.49     0  04:41      1.19    2.07    1.00
  WS02006248WS02006247 CONDUIT    372.45     0  04:41      1.17    0.81    1.00
  WS02006247WS02006245 CONDUIT    367.98     0  04:41      1.15    2.92    1.00
  WS02006245WS02006243 CONDUIT    362.62     0  04:41      1.20    1.07    1.00
  WS02006243WS02006242 CONDUIT    353.75     0  04:42      1.08    0.76    1.00
  WS02006242WS02006240 CONDUIT    344.72     0  04:42      1.02    1.37    1.00
  WS02006240WS02006239 CONDUIT    336.22     0  04:42      1.11    1.06    1.00
  WS02006239WS02006238 CONDUIT    334.08     0  04:43      1.00    1.07    1.00
  WS02006238WS02006235 CONDUIT    333.22     0  04:43      0.99    0.74    1.00
  WS02006235WS02006234 CONDUIT    489.90     0  04:13      1.27    5.17    1.00
  WS02006234WS02006232 CONDUIT    489.91     0  04:13      1.27    0.99    1.00
  WS02006232WS02006231 CONDUIT    489.89     0  04:13      1.27    1.03    1.00
  WS02006231WS02006230 CONDUIT    492.19     0  07:22      1.35    7.47    1.00
  WS02006230WS02006229 CONDUIT    499.76     0  04:13      1.30   11.12    1.00
  WS02006228WS02006109 CONDUIT    926.75     0  03:02      1.84    4.05    1.00
  WS02006116WS02004401 CONDUIT    950.64     0  03:03      1.21    1.31    1.00
  WS02006115WS02006116 CONDUIT    950.71     0  03:03      1.21    1.22    1.00
  WS02006113WS02006111 CONDUIT    927.88     0  03:02      2.61    1.11    1.00
  WS02006112WS02006115 CONDUIT    950.75     0  03:03      1.21    0.56    1.00
  WS02006111WS02006112 CONDUIT    927.92     0  03:02      1.85    0.44    1.00
  WS02006110WS02006113 CONDUIT    927.73     0  03:02      1.85    0.84    1.00
  WS02006109WS02006110 CONDUIT    927.94     0  03:02      1.85    1.78    1.00
  WS02004411WS02004412 CONDUIT    935.51     0  03:04      1.24    1.33    0.92
  WS02004401WS02004402 CONDUIT    950.42     0  03:03      1.21    1.14    1.00
  WS02004413WS02003067 CONDUIT    937.65     0  03:04      1.55    0.40    0.72
  WS02004412WS02004413 CONDUIT    937.04     0  03:04      1.21    0.63    0.95
  WS02004410WS02004411 CONDUIT    933.87     0  03:03      1.23    1.28    0.94
  WS02004409WS02004410 CONDUIT    941.91     0  03:03      1.23    1.22    0.95
  WS02004407WS02004409 CONDUIT    950.96     0  03:03      1.71    0.34    0.68
  WS02004406WS02004407 CONDUIT    952.54     0  03:03      1.62    0.43    0.70
  WS02004405WS02004406 CONDUIT    952.04     0  03:03      1.21    1.88    1.00
  WS02004404WS02004405 CONDUIT    951.84     0  03:03      1.21    9.33    1.00
  WS02004403WS02004404 CONDUIT    951.20     0  03:03      1.21    0.69    1.00
  WS02004402WS02004403 CONDUIT    950.40     0  03:03      1.21    1.37    1.00
  WS02004139WS02001211 CONDUIT    383.24     0  03:27      0.90    0.48    0.64
  WS02004138WS02004139 CONDUIT    394.13     0  00:00      3.62    0.08    0.46
  WS02003067WS02003066 CONDUIT    939.07     0  03:04      1.65    0.30    0.50
  WS02001213WS02003059 CONDUIT    401.15     0  03:26      0.89    0.66    0.86
  WS02001212WS02001213 CONDUIT    396.93     0  03:26      1.32    0.61    0.55
  WS02001211WS02001212 CONDUIT    393.85     0  03:25      0.78    0.30    0.71
  WS02003072WS02003073 CONDUIT   1304.63     0  03:06      1.94    2.82    0.57
  WS02003069WS02003072 CONDUIT   1303.23     0  03:06      1.80    0.63    0.61
  WS02003060WS02003069 CONDUIT   1302.99     0  03:06      2.02    0.51    0.56
  WS02003059WS02003060 CONDUIT    406.42     0  03:25      0.95    0.27    0.76
  HS02004901HS02004770 CONDUIT     37.21     0  03:01      0.10    0.14    0.53
  HS02004876HS02004881 CONDUIT    127.61     0  03:01      1.21    1.36    0.15
  HS02004870HS02004876 CONDUIT    103.09     0  03:01      0.82    0.07    0.18
  HS02004842HS02004848 CONDUIT     16.84     0  03:01      0.07    0.01    0.33
  HS02004837HS02004842 CONDUIT     17.92     0  03:03      0.42    0.01    0.35
  HS02004830HS02004837 CONDUIT     64.62     0  03:01      0.67    0.06    0.14
  HS02004824HS02004830 CONDUIT     64.10     0  03:01      0.62    0.08    0.16
  HS02004817HS02004824 CONDUIT    123.85     0  03:01      0.31    0.06    0.58
  HS02004770HS02004777 CONDUIT    184.95     0  03:01      0.49    0.34    0.54
  HS02004799HS02004480 CONDUIT    444.23     0  03:01      1.07    0.56    0.60
  HS02004792HS02004799 CONDUIT    408.25     0  03:01      1.20    0.25    0.49
  HS02004788HS02004792 CONDUIT    232.94     0  03:02      1.28    0.15    0.26
  HS02004785HS02004788 CONDUIT    181.74     0  03:02      0.91    1.37    0.29
  HS02004777HS02004785 CONDUIT    182.04     0  03:01      0.57    0.22    0.45
  HS02004480HS02004478 CONDUIT    517.22     0  03:01      1.55    2.18    0.48
  HS02004479HS02004480 CONDUIT     77.36     0  03:02      0.30    0.07    0.57
  HS02004862HS02004870 CONDUIT     79.01     0  03:01      0.80    0.09    0.14
  HS02004848HS02004852 CONDUIT     37.83     0  03:01      0.53    0.04    0.10
  HS02004856HS02004862 CONDUIT     54.75     0  03:01      0.59    0.05    0.13
  HS02004852HS02004856 CONDUIT     37.74     0  03:02      0.34    0.04    0.16
  HS02004802HS02004478 CONDUIT    170.17     0  03:04      0.54    0.15    0.48
  HS02004478WS02006287 CONDUIT    677.51     0  03:02      2.11    0.19    0.36
  HS02004817HS02004807 CONDUIT    128.10     0  03:04      0.25    0.08    0.75
  HS02004807HS02004802 CONDUIT    165.31     0  03:04      0.46    0.32    0.53
  YS02001759YS02001757 CONDUIT    621.73     0  02:42      0.79    0.44    1.00
  YS02001762YS02001759 CONDUIT    316.67     0  02:42      0.40    0.36    1.00
  YS02001765YS02001762 CONDUIT    316.41     0  02:42      0.40    0.30    1.00
  YS02001770YS02001767 CONDUIT    316.08     0  02:42      0.40    1.25    1.00
  YS02001774YS02001770 CONDUIT    708.58     0  03:04      0.90    0.45    1.00
  YS02001779YS02001774 CONDUIT    708.80     0  03:04      0.90    0.36    1.00
  YS02001649YS02001757 CONDUIT    873.58     0  02:40      1.11    0.53    1.00
  YS02001767YS02001765 CONDUIT    316.40     0  02:42      0.40    0.40    1.00
  YS02006561YS02001783 CONDUIT    981.18     0  03:22      2.18    0.51    1.00
  YS02001783YS02001784 CONDUIT    981.16     0  03:22      1.95    1.35    1.00
  YS02001784YS02001785 CONDUIT    982.10     0  03:22      1.95    2.29    1.00
  YS02001788YS02001790 CONDUIT    982.33     0  03:22      2.44    0.72    1.00
  YS02001790YS02001791 CONDUIT    982.56     0  03:21      3.04    1.07    1.00
  YS02001791YS02001793 CONDUIT    982.69     0  03:22      6.01    0.42    1.00
  YS02001910YS02001907 CONDUIT    592.78     0  03:02      0.75    0.33    1.00
  YS02001786YS02001788 CONDUIT    982.31     0  03:22      2.31    1.89    1.00
  YS02001915YS02001910 CONDUIT    592.77     0  03:02      0.75    0.29    1.00
  YS02001918YS02001915 CONDUIT    282.89     0  02:49      0.44    0.16    1.00
  YS02001923YS02001920 CONDUIT    278.91     0  02:49      0.75    0.13    1.00
  YS02001926YS02001923 CONDUIT    292.09     0  02:49      0.86    0.42    0.96
  YS02001929YS02001926 CONDUIT    271.73     0  02:49      0.92    0.13    0.85
  YS02001920YS02001918 CONDUIT    281.75     0  02:49      0.72    0.27    1.00
  YS02001629YS02163301 CONDUIT    211.28     0  02:32      0.27    0.26    1.00
  YS02001619YS02001622 CONDUIT    380.99     0  03:01      0.59    0.56    1.00
  YS02001622YS02001625 CONDUIT    380.87     0  03:01      0.48    0.20    1.00
  YS02001625YS02001629 CONDUIT    196.55     0  02:39      0.25    0.09    1.00
  YS02163301YS02001633 CONDUIT    212.68     0  02:32      0.27    0.20    1.00
  YS02163601YS02164001 CONDUIT    414.15     0  02:39      0.53    0.37    1.00
  YS02164001YS02001641 CONDUIT    415.24     0  02:39      0.53    0.57    1.00
  YS02001641YS02001644 CONDUIT    415.61     0  02:39      0.53    1.34    1.00
  YS02001647YS02001649 CONDUIT    771.19     0  03:07      0.98    0.41    1.00
  YS02006553YS02006556 CONDUIT    710.28     0  03:46      0.90    0.61    1.00
  YS02006556YS02006558 CONDUIT    710.51     0  03:46      0.90    0.56    1.00
  YSB6556YSB1171       CONDUIT     42.87     0  03:02      0.13    0.04    0.82
  YS02001907YS02006553 CONDUIT    710.44     0  03:46      0.79    0.84    1.00
  YS02006558YS02006561 CONDUIT    980.94     0  03:22      3.53    2.17    1.00
  YS02001633YS02163601 CONDUIT    413.49     0  02:39      0.53    0.43    1.00
  YS02001644YS02001647 CONDUIT    771.26     0  03:07      0.98    0.45    1.00
  YS02001745YS02001748 CONDUIT    561.28     0  02:32      1.45    0.22    0.98
  YS02001748YS02001751 CONDUIT    442.02     0  03:01      1.03    0.22    1.00
  YS02001751YS02001754 CONDUIT    442.09     0  03:01      0.88    0.21    1.00
  YS02001754YS02001757 CONDUIT    442.33     0  03:01      0.56    0.18    1.00
  YS02001882YS02001884 CONDUIT     14.13     0  02:44      0.12    0.02    1.00
  YS02001884YS02001887 CONDUIT     26.59     0  02:44      0.08    0.04    1.00
  YS02001890YS02001895 CONDUIT    517.29     0  03:04      0.66    0.24    1.00
  YS02001895YS02001898 CONDUIT    517.49     0  02:57      0.66    0.90    1.00
  YS02001898YS02001901 CONDUIT    517.70     0  03:04      0.66    0.33    1.00
  YS02001901YS02001904 CONDUIT    517.34     0  03:04      0.66    0.80    1.00
  YS02001904YS02001907 CONDUIT    517.62     0  03:04      0.66    0.18    1.00
  YS02001887YS02001890 CONDUIT    680.27     0  03:01      0.87    1.16    1.00
  YS02001652YS02001649 CONDUIT    501.56     0  03:01      0.64    0.25    1.00
  YS02001655YS02001652 CONDUIT    500.44     0  03:01      0.94    0.24    1.00
  YS02001658YS02001655 CONDUIT    500.57     0  03:01      1.18    0.21    1.00
  YS02001661YS02001658 CONDUIT    593.96     0  02:29      1.52    0.23    1.00
  YS02001664YS02001661 CONDUIT    675.72     0  02:43      1.43    0.21    0.77
  YSB1154YSB6556       CONDUIT     43.26     0  03:01      0.18    0.08    0.73
  YSB1174YSB1171       CONDUIT     36.63     0  03:01      0.11    0.06    0.85
  YSB1171HS02004479    CONDUIT     75.51     0  03:02      0.54    0.05    0.68
  HS02004881HS02006253 CONDUIT    141.39     0  03:01      2.49    0.03    0.54
  YS02001793JiankangQianchi CONDUIT   1015.16     0  02:41     16.65    0.08    1.00
  YS02001757CaochengTiaoxuchi CONDUIT   1678.65     0  02:41      2.17    0.74    1.00
  WSF200WS02003060     CONDUIT    941.92     0  03:04      1.95    0.21    0.44
  1                    CONDUIT   1309.43     0  03:07      3.57    0.46    0.47
  CC-Pump-1            PUMP       200.00     0  04:40              1.00
  CC-Pump-2            PUMP       199.98     0  03:10              1.00
  JK-Pump-1            PUMP       300.00     0  02:10              1.00
  JK-Pump-2            PUMP       683.00     0  02:20              1.00
  XR-Pump-1            PUMP        95.00     0  00:00              1.00
  XR-Pump-2            PUMP        95.00     0  00:00              1.00
  XR-Pump-3            PUMP        95.00     0  00:00              1.00
  XR-Pump-4            PUMP        95.00     0  00:00              1.00
  
  
  ***************************
  Flow Classification Summary
  ***************************
  
  -------------------------------------------------------------------------------------
                      Adjusted    ---------- Fraction of Time in Flow Class ---------- 
                       /Actual         Up    Down  Sub   Sup   Up    Down  Norm  Inlet 
  Conduit               Length    Dry  Dry   Dry   Crit  Crit  Crit  Crit  Ltd   Ctrl  
  -------------------------------------------------------------------------------------
  WS02003066WSF200        1.00   0.01  0.03  0.00  0.00  0.96  0.00  0.00  0.70  0.00
  WS02006287WS02006284    1.00   0.04  0.02  0.00  0.59  0.36  0.00  0.00  0.65  0.00
  WS02006284WS02006280    1.00   0.05  0.00  0.00  0.00  0.00  0.00  0.95  0.00  0.00
  WS02006280WS02006229    1.00   0.05  0.00  0.00  0.01  0.02  0.00  0.92  0.01  0.00
  WS02006229WS02006228    1.00   0.00  0.00  0.00  1.00  0.00  0.00  0.00  0.00  0.00
  WS02006256WS02006235    1.00   0.01  0.00  0.00  0.99  0.00  0.00  0.00  0.00  0.00
  WS02006253WS02006251    1.00   0.02  0.02  0.00  0.95  0.00  0.01  0.00  0.00  0.00
  WS02006252WS02006251    1.00   0.25  0.00  0.00  0.04  0.00  0.71  0.00  0.00  0.00
  WS02006251WS02006249    1.00   0.00  0.00  0.00  1.00  0.00  0.00  0.00  0.44  0.00
  WS02006249WS02006248    1.00   0.00  0.01  0.00  0.82  0.00  0.17  0.00  0.00  0.00
  WS02006248WS02006247    1.00   0.01  0.00  0.00  0.98  0.00  0.00  0.02  0.25  0.00
  WS02006247WS02006245    1.00   0.01  0.00  0.00  0.97  0.00  0.00  0.02  0.00  0.00
  WS02006245WS02006243    1.00   0.01  0.00  0.00  0.93  0.00  0.00  0.06  0.02  0.00
  WS02006243WS02006242    1.00   0.01  0.00  0.00  0.98  0.00  0.00  0.01  0.27  0.00
  WS02006242WS02006240    1.00   0.01  0.00  0.00  0.98  0.00  0.01  0.00  0.00  0.00
  WS02006240WS02006239    1.00   0.01  0.00  0.00  0.90  0.00  0.00  0.09  0.01  0.00
  WS02006239WS02006238    1.00   0.01  0.00  0.00  0.99  0.00  0.00  0.00  0.12  0.00
  WS02006238WS02006235    1.00   0.01  0.00  0.00  0.99  0.00  0.00  0.00  0.00  0.00
  WS02006235WS02006234    1.00   0.01  0.00  0.00  0.94  0.00  0.06  0.00  0.00  0.00
  WS02006234WS02006232    1.00   0.01  0.00  0.00  0.99  0.00  0.00  0.00  0.06  0.00
  WS02006232WS02006231    1.00   0.01  0.00  0.00  0.99  0.00  0.00  0.00  0.00  0.00
  WS02006231WS02006230    1.00   0.01  0.00  0.00  0.55  0.00  0.44  0.00  0.00  0.00
  WS02006230WS02006229    1.00   0.00  0.00  0.00  0.99  0.00  0.00  0.01  0.00  0.00
  WS02006228WS02006109    1.00   0.00  0.00  0.00  1.00  0.00  0.00  0.00  0.01  0.00
  WS02006116WS02004401    1.00   0.02  0.00  0.00  0.98  0.00  0.00  0.00  0.00  0.00
  WS02006115WS02006116    1.00   0.02  0.00  0.00  0.98  0.00  0.00  0.00  0.00  0.00
  WS02006113WS02006111    1.00   0.01  0.00  0.00  0.04  0.95  0.00  0.00  0.25  0.00
  WS02006112WS02006115    1.00   0.02  0.00  0.00  0.98  0.00  0.00  0.00  0.00  0.00
  WS02006111WS02006112    1.00   0.02  0.00  0.00  0.98  0.00  0.00  0.00  0.89  0.00
  WS02006110WS02006113    1.00   0.00  0.01  0.00  0.99  0.00  0.00  0.00  0.00  0.00
  WS02006109WS02006110    1.00   0.00  0.00  0.00  0.99  0.00  0.00  0.00  0.00  0.00
  WS02004411WS02004412    1.00   0.03  0.00  0.00  0.97  0.00  0.00  0.00  0.00  0.00
  WS02004401WS02004402    1.00   0.02  0.00  0.00  0.98  0.00  0.00  0.00  0.00  0.00
  WS02004413WS02003067    1.00   0.03  0.00  0.00  0.00  0.00  0.97  0.00  0.00  0.00
  WS02004412WS02004413    1.00   0.03  0.00  0.00  0.97  0.00  0.00  0.00  0.00  0.00
  WS02004410WS02004411    1.00   0.03  0.00  0.00  0.97  0.00  0.00  0.00  0.00  0.00
  WS02004409WS02004410    1.00   0.03  0.00  0.00  0.97  0.00  0.00  0.00  0.00  0.00
  WS02004407WS02004409    1.00   0.03  0.00  0.00  0.97  0.00  0.00  0.00  0.93  0.00
  WS02004406WS02004407    1.00   0.00  0.03  0.00  0.97  0.00  0.00  0.00  0.00  0.00
  WS02004405WS02004406    1.00   0.00  0.00  0.00  1.00  0.00  0.00  0.00  0.02  0.00
  WS02004404WS02004405    1.00   0.00  0.00  0.00  1.00  0.00  0.00  0.00  0.00  0.00
  WS02004403WS02004404    1.00   0.00  0.02  0.00  0.98  0.00  0.00  0.00  0.00  0.00
  WS02004402WS02004403    1.00   0.02  0.00  0.00  0.98  0.00  0.00  0.00  0.00  0.00
  WS02004139WS02001211    1.00   0.00  0.00  0.00  1.00  0.00  0.00  0.00  0.00  0.00
  WS02004138WS02004139    1.00   0.00  0.00  0.00  1.00  0.00  0.00  0.00  1.00  0.00
  WS02003067WS02003066    1.00   0.04  0.00  0.00  0.96  0.00  0.00  0.00  0.00  0.00
  WS02001213WS02003059    1.00   0.00  0.00  0.00  1.00  0.00  0.00  0.00  0.00  0.00
  WS02001212WS02001213    1.00   0.00  0.00  0.00  0.88  0.00  0.12  0.00  0.00  0.00
  WS02001211WS02001212    1.00   0.00  0.00  0.00  1.00  0.00  0.00  0.00  0.00  0.00
  WS02003072WS02003073    1.00   0.00  0.00  0.00  0.00  0.00  0.00  1.00  0.00  0.00
  WS02003069WS02003072    1.00   0.00  0.00  0.00  1.00  0.00  0.00  0.00  0.14  0.00
  WS02003060WS02003069    1.00   0.00  0.00  0.00  0.99  0.01  0.00  0.00  0.11  0.00
  WS02003059WS02003060    1.00   0.00  0.00  0.00  1.00  0.00  0.00  0.00  0.00  0.00
  HS02004901HS02004770    1.00   0.05  0.00  0.00  0.95  0.00  0.00  0.00  0.00  0.00
  HS02004876HS02004881    1.00   0.01  0.00  0.00  0.89  0.10  0.00  0.00  0.00  0.00
  HS02004870HS02004876    1.00   0.00  0.00  0.00  0.99  0.00  0.00  0.00  0.95  0.00
  HS02004842HS02004848    1.00   0.00  0.05  0.00  0.95  0.00  0.00  0.00  0.54  0.00
  HS02004837HS02004842    1.00   0.00  0.00  0.00  1.00  0.00  0.00  0.00  0.11  0.00
  HS02004830HS02004837    1.00   0.00  0.00  0.00  1.00  0.00  0.00  0.00  0.99  0.00
  HS02004824HS02004830    1.00   0.00  0.00  0.00  1.00  0.00  0.00  0.00  0.01  0.00
  HS02004817HS02004824    1.00   0.00  0.00  0.00  1.00  0.00  0.00  0.00  0.97  0.00
  HS02004770HS02004777    1.00   0.00  0.05  0.00  0.95  0.00  0.00  0.00  0.03  0.00
  HS02004799HS02004480    1.00   0.00  0.01  0.00  0.94  0.00  0.04  0.00  0.00  0.00
  HS02004792HS02004799    1.00   0.00  0.00  0.00  1.00  0.00  0.00  0.00  0.98  0.00
  HS02004788HS02004792    1.00   0.00  0.00  0.00  1.00  0.00  0.00  0.00  0.98  0.00
  HS02004785HS02004788    1.00   0.00  0.00  0.00  1.00  0.00  0.00  0.00  0.00  0.00
  HS02004777HS02004785    1.00   0.00  0.00  0.00  1.00  0.00  0.00  0.00  0.12  0.00
  HS02004480HS02004478    1.00   0.05  0.00  0.00  0.65  0.00  0.00  0.30  0.00  0.00
  HS02004479HS02004480    1.00   0.01  0.00  0.00  0.99  0.00  0.00  0.00  0.12  0.00
  HS02004862HS02004870    1.00   0.00  0.00  0.00  1.00  0.00  0.00  0.00  0.04  0.00
  HS02004848HS02004852    1.00   0.05  0.00  0.00  0.95  0.00  0.00  0.00  0.64  0.00
  HS02004856HS02004862    1.00   0.00  0.06  0.00  0.94  0.00  0.00  0.00  0.83  0.00
  HS02004852HS02004856    1.00   0.05  0.00  0.00  0.95  0.00  0.00  0.00  0.80  0.00
  HS02004802HS02004478    1.00   0.05  0.00  0.00  0.95  0.00  0.00  0.00  0.02  0.00
  HS02004478WS02006287    1.00   0.06  0.00  0.00  0.71  0.23  0.00  0.00  0.65  0.00
  HS02004817HS02004807    1.00   0.00  0.05  0.00  0.95  0.00  0.00  0.00  0.01  0.00
  HS02004807HS02004802    1.00   0.05  0.00  0.00  0.95  0.00  0.00  0.01  0.00  0.00
  YS02001759YS02001757    1.00   0.00  0.00  0.00  1.00  0.00  0.00  0.00  0.16  0.00
  YS02001762YS02001759    1.00   0.00  0.00  0.00  1.00  0.00  0.00  0.00  0.03  0.00
  YS02001765YS02001762    1.00   0.00  0.00  0.00  1.00  0.00  0.00  0.00  0.14  0.00
  YS02001770YS02001767    1.00   0.00  0.00  0.00  1.00  0.00  0.00  0.00  0.00  0.00
  YS02001774YS02001770    1.00   0.00  0.05  0.00  0.95  0.00  0.00  0.00  0.03  0.00
  YS02001779YS02001774    1.00   0.00  0.00  0.00  1.00  0.00  0.00  0.00  0.19  0.00
  YS02001649YS02001757    1.00   0.00  0.00  0.00  1.00  0.00  0.00  0.00  0.16  0.00
  YS02001767YS02001765    1.00   0.00  0.00  0.00  1.00  0.00  0.00  0.00  0.00  0.00
  YS02006561YS02001783    1.00   0.07  0.00  0.00  0.39  0.54  0.00  0.00  0.47  0.00
  YS02001783YS02001784    1.00   0.00  0.07  0.00  0.93  0.00  0.00  0.00  0.01  0.00
  YS02001784YS02001785    1.00   0.00  0.00  0.00  1.00  0.00  0.00  0.00  0.18  0.00
  YS02001788YS02001790    1.00   0.00  0.00  0.00  0.43  0.57  0.00  0.00  0.36  0.00
  YS02001790YS02001791    1.00   0.00  0.00  0.00  0.37  0.63  0.00  0.00  0.42  0.00
  YS02001791YS02001793    1.00   0.00  0.00  0.00  0.39  0.61  0.00  0.00  0.03  0.00
  YS02001910YS02001907    1.00   0.00  0.00  0.00  0.99  0.00  0.00  0.01  0.12  0.00
  YS02001786YS02001788    1.00   0.00  0.00  0.00  0.42  0.58  0.00  0.00  0.00  0.00
  YS02001915YS02001910    1.00   0.00  0.00  0.00  0.99  0.01  0.00  0.00  0.16  0.00
  YS02001918YS02001915    1.00   0.00  0.00  0.00  0.99  0.01  0.00  0.00  0.53  0.00
  YS02001923YS02001920    1.00   0.00  0.00  0.00  1.00  0.00  0.00  0.00  0.82  0.00
  YS02001926YS02001923    1.00   0.00  0.03  0.00  0.14  0.00  0.83  0.00  0.00  0.00
  YS02001929YS02001926    1.00   0.00  0.05  0.00  0.95  0.00  0.00  0.00  0.74  0.00
  YS02001920YS02001918    1.00   0.00  0.00  0.00  1.00  0.00  0.00  0.00  0.00  0.00
  YS02001629YS02163301    1.00   0.06  0.00  0.00  0.94  0.00  0.00  0.00  0.00  0.00
  YS02001619YS02001622    1.00   0.05  0.00  0.00  0.95  0.00  0.00  0.00  0.00  0.00
  YS02001622YS02001625    1.00   0.05  0.00  0.00  0.95  0.00  0.00  0.00  0.05  0.00
  YS02001625YS02001629    1.00   0.05  0.02  0.00  0.91  0.00  0.02  0.00  0.00  0.00
  YS02163301YS02001633    1.00   0.00  0.05  0.00  0.95  0.00  0.00  0.00  0.00  0.00
  YS02163601YS02164001    1.00   0.00  0.03  0.00  0.97  0.00  0.00  0.00  0.00  0.00
  YS02164001YS02001641    1.00   0.00  0.03  0.00  0.97  0.00  0.00  0.00  0.06  0.00
  YS02001641YS02001644    1.00   0.00  0.00  0.00  1.00  0.00  0.00  0.00  0.00  0.00
  YS02001647YS02001649    1.00   0.00  0.06  0.00  0.94  0.00  0.00  0.00  0.01  0.00
  YS02006553YS02006556    1.00   0.00  0.00  0.00  1.00  0.00  0.00  0.00  0.03  0.00
  YS02006556YS02006558    1.00   0.00  0.00  0.00  1.00  0.00  0.00  0.00  0.00  0.00
  YSB6556YSB1171          1.00   0.01  0.03  0.00  0.95  0.00  0.00  0.00  0.00  0.00
  YS02001907YS02006553    1.00   0.00  0.01  0.00  0.99  0.00  0.00  0.00  0.00  0.00
  YS02006558YS02006561    1.00   0.07  0.00  0.00  0.14  0.79  0.00  0.00  0.47  0.00
  YS02001633YS02163601    1.00   0.00  0.00  0.00  1.00  0.00  0.00  0.00  0.15  0.00
  YS02001644YS02001647    1.00   0.00  0.06  0.00  0.94  0.00  0.00  0.00  0.00  0.00
  YS02001745YS02001748    1.00   0.00  0.00  0.00  0.88  0.01  0.00  0.11  0.04  0.00
  YS02001748YS02001751    1.00   0.00  0.00  0.00  0.96  0.04  0.00  0.00  0.15  0.00
  YS02001751YS02001754    1.00   0.00  0.00  0.00  0.92  0.00  0.00  0.07  0.02  0.00
  YS02001754YS02001757    1.00   0.00  0.00  0.00  1.00  0.00  0.00  0.00  0.18  0.00
  YS02001882YS02001884    1.00   0.05  0.00  0.00  0.94  0.00  0.00  0.00  0.00  0.00
  YS02001884YS02001887    1.00   0.02  0.02  0.00  0.96  0.00  0.00  0.00  0.00  0.00
  YS02001890YS02001895    1.00   0.00  0.06  0.00  0.94  0.00  0.00  0.00  0.00  0.00
  YS02001895YS02001898    1.00   0.06  0.00  0.00  0.93  0.00  0.01  0.00  0.00  0.00
  YS02001898YS02001901    1.00   0.06  0.00  0.00  0.94  0.00  0.00  0.00  0.01  0.00
  YS02001901YS02001904    1.00   0.06  0.00  0.00  0.94  0.00  0.00  0.00  0.00  0.00
  YS02001904YS02001907    1.00   0.00  0.06  0.00  0.94  0.00  0.00  0.00  0.00  0.00
  YS02001887YS02001890    1.00   0.00  0.00  0.00  0.99  0.00  0.01  0.00  0.00  0.00
  YS02001652YS02001649    1.00   0.00  0.00  0.00  1.00  0.00  0.00  0.00  0.17  0.00
  YS02001655YS02001652    1.00   0.00  0.00  0.00  0.93  0.00  0.00  0.07  0.02  0.00
  YS02001658YS02001655    1.00   0.00  0.05  0.00  0.91  0.04  0.00  0.00  0.10  0.00
  YS02001661YS02001658    1.00   0.05  0.00  0.00  0.88  0.07  0.00  0.00  0.11  0.00
  YS02001664YS02001661    1.00   0.05  0.00  0.00  0.90  0.05  0.00  0.00  0.20  0.00
  YSB1154YSB6556          1.00   0.05  0.00  0.00  0.95  0.00  0.00  0.00  0.02  0.00
  YSB1174YSB1171          1.00   0.02  0.02  0.00  0.96  0.00  0.00  0.00  0.00  0.00
  YSB1171HS02004479       1.00   0.01  0.00  0.00  0.98  0.00  0.00  0.01  0.10  0.00
  HS02004881HS02006253    1.00   0.02  0.00  0.00  0.43  0.01  0.00  0.54  0.24  0.00
  YS02001793JiankangQianchi    1.00   0.00  0.00  0.00  0.66  0.34  0.00  0.00  0.42  0.00
  YS02001757CaochengTiaoxuchi    1.00   0.00  0.09  0.00  0.91  0.00  0.00  0.00  0.00  0.00
  WSF200WS02003060        1.00   0.00  0.01  0.00  0.99  0.00  0.00  0.00  0.61  0.00
  1                       1.00   0.00  0.00  0.00  0.00  1.00  0.00  0.00  0.47  0.00
  
  
  *************************
  Conduit Surcharge Summary
  *************************
  
  ----------------------------------------------------------------------------
                                                           Hours        Hours 
                         --------- Hours Full --------   Above Full   Capacity
  Conduit                Both Ends  Upstream  Dnstream   Normal Flow   Limited
  ----------------------------------------------------------------------------
  WS02006229WS02006228        2.17      2.23      2.17      3.38         2.17
  WS02006256WS02006235        5.35      5.35      6.80      4.23         0.01
  WS02006253WS02006251        0.41      0.41      0.45      0.01         0.02
  WS02006252WS02006251        0.43      0.43      0.83      0.58         0.01
  WS02006251WS02006249        0.43      0.43      0.48      0.26         0.14
  WS02006249WS02006248        0.44      0.44      0.48      1.19         0.01
  WS02006248WS02006247        0.48      0.48      0.54      0.01         0.01
  WS02006247WS02006245        0.55      0.56      0.55      1.63         0.48
  WS02006245WS02006243        0.57      0.57      0.61      0.09         0.01
  WS02006243WS02006242        0.63      0.63      0.80      0.01         0.01
  WS02006242WS02006240        0.77      0.77      0.95      0.48         0.01
  WS02006240WS02006239        0.79      0.79      0.98      0.11         0.01
  WS02006239WS02006238        1.26      1.26      1.50      0.12         0.01
  WS02006238WS02006235        1.50      1.50      1.63      0.01         0.01
  WS02006235WS02006234        1.14      1.14      1.43      5.26         0.01
  WS02006234WS02006232        1.32      1.32      1.91      0.01         0.02
[...]
  YS02001779YS02001774        5.56      5.56      5.74      0.01         0.01
  YS02001649YS02001757        5.76      5.76      5.86      0.01         0.01
  YS02001767YS02001765        5.70      5.70      5.72      0.01         0.01
  YS02006561YS02001783        0.96      0.96      1.19      0.01         0.01
  YS02001783YS02001784        1.15      1.19      1.15      1.57         1.15
  YS02001784YS02001785        1.08      1.15      1.08      2.50         1.08
  YS02001788YS02001790        1.03      1.03      2.03      0.01         0.01
  YS02001790YS02001791        2.03      2.03      2.19      1.08         1.06
  YS02001791YS02001793        2.19      2.19      2.63      0.01         0.01
  YS02001910YS02001907        1.25      1.25      1.90      0.01         0.01
  YS02001786YS02001788        1.03      1.08      1.03      2.09         1.03
  YS02001915YS02001910        1.07      1.07      1.25      0.01         0.01
  YS02001918YS02001915        0.91      0.91      1.07      0.01         0.01
  YS02001923YS02001920        0.75      0.75      0.94      0.01         0.01
  YS02001926YS02001923        0.01      0.01      0.01      0.01         0.01
  YS02001929YS02001926        0.01      0.01      0.01      0.01         0.01
  YS02001920YS02001918        0.91      0.91      0.94      0.01         0.01
  YS02001629YS02163301        5.67      5.67      5.69      0.01         0.01
  YS02001619YS02001622        5.37      5.37      5.41      0.01         0.01
  YS02001622YS02001625        5.41      5.41      5.64      0.01         0.01
  YS02001625YS02001629        5.38      5.38      5.64      0.01         0.01
  YS02163301YS02001633        5.69      5.69      5.72      0.01         0.01
  YS02163601YS02164001        5.72      5.72      5.75      0.01         0.01
  YS02164001YS02001641        5.72      5.72      5.73      0.01         0.03
  YS02001641YS02001644        5.73      5.73      5.73      1.72         1.87
  YS02001647YS02001649        5.62      5.62      5.76      0.01         0.01
  YS02006553YS02006556        1.47      1.47      2.01      0.01         0.01
  YS02006556YS02006558        1.68      1.68      2.07      0.01         0.01
  YSB6556YSB1171              0.01      0.01      0.07      0.01         0.01
  YS02001907YS02006553        2.54      2.54      2.75      0.01         0.01
  YS02006558YS02006561        1.05      1.43      1.05      2.34         1.05
  YS02001633YS02163601        5.71      5.71      5.75      0.01         0.01
  YS02001644YS02001647        5.62      5.62      5.73      0.01         0.01
  YS02001745YS02001748        0.01      0.01      5.22      0.01         0.01
  YS02001748YS02001751        5.27      5.27      5.37      0.01         0.01
  YS02001751YS02001754        5.37      5.37      5.57      0.01         0.01
  YS02001754YS02001757        5.62      5.62      5.86      0.01         0.01
  YS02001882YS02001884        1.07      1.07      1.10      0.01         0.01
  YS02001884YS02001887        1.15      1.15      1.18      0.01         0.01
  YS02001890YS02001895        1.05      1.05      1.27      0.01         0.01
  YS02001895YS02001898        1.04      1.04      1.05      0.01         0.01
  YS02001898YS02001901        1.06      1.06      1.14      0.01         0.01
  YS02001901YS02001904        1.11      1.11      1.14      0.01         0.01
  YS02001904YS02001907        1.11      1.11      2.03      0.01         0.01
  YS02001887YS02001890        1.20      1.20      1.23      0.16         0.01
  YS02001652YS02001649        5.63      5.63      5.76      0.01         0.01
  YS02001655YS02001652        5.39      5.39      5.61      0.01         0.01
  YS02001658YS02001655        5.25      5.25      5.39      0.01         0.01
  YS02001661YS02001658        0.07      0.07      5.25      0.01         0.01
  YS02001664YS02001661        0.01      0.01      1.13      0.01         0.01
  HS02004881HS02006253        0.01      0.01      0.24      0.01         0.01
  YS02001793JiankangQianchi        2.52      2.52      4.45      0.01         0.01
  YS02001757CaochengTiaoxuchi        5.11      5.11      5.86      0.01         0.01
  
  
  ***************
  Pumping Summary
  ***************
  
  ---------------------------------------------------------------------------------------------------------
                                                  Min       Avg       Max     Total     Power    % Time Off
                        Percent   Number of      Flow      Flow      Flow    Volume     Usage    Pump Curve
  Pump                 Utilized   Start-Ups       LPS       LPS       LPS  10^6 ltr     Kw-hr    Low   High
  ---------------------------------------------------------------------------------------------------------
  CC-Pump-1               29.79           6      0.00    123.72    200.00     0.960      0.82    0.0    0.0
  CC-Pump-2               21.27           5      0.00    102.56    199.98     0.600      0.59    0.0    0.0
  JK-Pump-1               57.46           5      0.00    225.26    300.00     3.543     52.28    0.0    0.0
  JK-Pump-2               51.07           4      0.00    414.43    683.00     6.179     84.25    0.0   95.3
  XR-Pump-1              100.00           1      0.00     95.00     95.00     2.679     27.05    0.0    0.0
  XR-Pump-2               97.87           2      0.00     92.79     95.00     2.508     23.51    0.0    0.0
  XR-Pump-3               91.49           3      0.00     92.74     95.00     2.337     19.62    0.0    0.0
  XR-Pump-4               91.49           3      0.00     92.74     95.00     2.337     19.62    0.0    0.0
  
  
  ***************************
  Link Pollutant Load Summary
  ***************************
  
  ------------------------------------------------------------------------------------------
                                 COD            SS            TN            TP         NH4-N
  Link                            kg            kg            kg            kg            kg
  ------------------------------------------------------------------------------------------
  WS02003066WSF200           720.522      1352.755        19.439         1.740        10.316
  WS02006287WS02006284       319.502       608.181        10.314         1.015         5.678
  WS02006284WS02006280       319.991       608.989        10.359         1.020         5.707
  WS02006280WS02006229       319.938       608.894        10.357         1.020         5.705
  WS02006229WS02006228       711.002      1335.339        18.772         1.656         9.907
  WS02006256WS02006235       218.236       403.354         4.796         0.372         2.423
  WS02006253WS02006251        61.266       120.648         1.326         0.098         0.654
  WS02006252WS02006251       138.810       254.258         2.904         0.212         1.432
  WS02006251WS02006249       193.287       362.495         4.089         0.301         2.017
  WS02006249WS02006248       176.487       329.744         3.745         0.276         1.849
  WS02006248WS02006247       176.248       329.183         3.744         0.276         1.849
  WS02006247WS02006245       176.639       329.971         3.748         0.276         1.850
  WS02006245WS02006243       177.202       331.222         3.753         0.276         1.851
  WS02006243WS02006242       179.161       335.038         3.790         0.278         1.869
  WS02006242WS02006240       180.318       337.246         3.811         0.279         1.879
  WS02006240WS02006239       181.699       339.787         3.837         0.281         1.891
  WS02006239WS02006238       183.605       343.006         3.888         0.286         1.919
  WS02006238WS02006235       184.689       344.684         3.919         0.289         1.936
  WS02006235WS02006234       393.116       729.932         8.494         0.644         4.246
  WS02006234WS02006232       393.044       729.805         8.494         0.644         4.247
  WS02006232WS02006231       392.536       728.889         8.481         0.643         4.240
  WS02006231WS02006230       392.504       728.810         8.481         0.643         4.240
  WS02006230WS02006229       391.941       727.932         8.460         0.641         4.228
  WS02006228WS02006109       710.419      1334.358        18.739         1.652         9.887
  WS02006116WS02004401       727.812      1365.897        19.603         1.752        10.398
  WS02006115WS02006116       728.295      1366.738        19.620         1.754        10.408
  WS02006113WS02006111       717.512      1345.658        19.465         1.744        10.343
  WS02006112WS02006115       728.813      1367.585        19.651         1.757        10.426
  WS02006111WS02006112       717.298      1345.311        19.451         1.742        10.334
  WS02006110WS02006113       717.750      1346.017        19.484         1.746        10.354
  WS02006109WS02006110       718.523      1347.275        19.538         1.753        10.387
  WS02004411WS02004412       723.251      1357.546        19.537         1.749        10.371
  WS02004401WS02004402       727.234      1364.917        19.576         1.749        10.382
  WS02004413WS02003067       721.236      1354.097        19.455         1.741        10.323
  WS02004412WS02004413       722.293      1355.849        19.507         1.746        10.354
  WS02004410WS02004411       724.017      1358.930        19.559         1.751        10.382
  WS02004409WS02004410       724.715      1360.166        19.582         1.753        10.395
  WS02004407WS02004409       725.254      1361.158        19.594         1.754        10.401
  WS02004406WS02004407       725.399      1361.475        19.590         1.754        10.398
  WS02004405WS02004406       726.460      1363.310        19.640         1.759        10.427
  WS02004404WS02004405       726.917      1364.220        19.627         1.757        10.417
  WS02004403WS02004404       726.164      1363.067        19.533         1.745        10.358
  WS02004402WS02004403       726.700      1363.980        19.557         1.747        10.372
  WS02004139WS02001211      1376.398      2285.510       111.704        13.635        68.854
  WS02004138WS02004139      1382.592      2295.861       112.181        13.693        69.147
  WS02003067WS02003066       720.723      1353.109        19.446         1.740        10.319
  WS02001213WS02003059      1409.919      2338.197       115.174        14.073        71.035
  WS02001212WS02001213      1418.877      2353.043       115.900        14.161        71.482
  WS02001211WS02001212      1420.847      2356.263       116.069        14.182        71.587
  WS02003072WS02003073      2230.876      3850.510       144.596        17.065        87.604
  WS02003069WS02003072      2235.704      3858.344       145.005        17.115        87.857
  WS02003060WS02003069      2238.365      3862.924       145.163        17.134        87.951
  WS02003059WS02003060      1407.058      2333.342       114.974        14.049        70.913
  HS02004901HS02004770        13.094        25.473         0.248         0.019         0.116
  HS02004876HS02004881        45.517        90.353         0.999         0.073         0.491
  HS02004870HS02004876        34.383        68.108         0.798         0.060         0.395
  HS02004842HS02004848         6.457        12.344         0.134         0.009         0.062
  HS02004837HS02004842        11.056        19.636         0.603         0.068         0.356
  HS02004830HS02004837        70.297       122.725         4.643         0.552         2.827
  HS02004824HS02004830        71.068       123.981         4.715         0.561         2.871
  HS02004817HS02004824        97.163       176.408         5.254         0.596         3.134
  HS02004770HS02004777        49.662        97.713         1.021         0.069         0.472
  HS02004799HS02004480       162.329       310.853         4.263         0.379         2.209
  HS02004792HS02004799       147.278       280.134         4.028         0.367         2.105
  HS02004788HS02004792        82.819       157.695         2.666         0.255         1.440
  HS02004785HS02004788        51.122       100.053         1.172         0.089         0.567
  HS02004777HS02004785        50.446        98.945         1.112         0.081         0.530
  HS02004480HS02004478       204.830       395.213         4.971         0.429         2.543
  HS02004479HS02004480        46.128        90.116         1.037         0.091         0.538
  HS02004862HS02004870        25.800        50.342         0.628         0.050         0.314
  HS02004848HS02004852        10.252        19.885         0.210         0.014         0.097
  HS02004856HS02004862        17.525        34.751         0.350         0.023         0.164
  HS02004852HS02004856        10.256        19.890         0.210         0.014         0.097
  HS02004802HS02004478       115.339       214.053         5.397         0.592         3.168
  HS02004478WS02006287       319.709       608.537        10.331         1.017         5.688
  HS02004817HS02004807        95.857       174.314         5.129         0.580         3.056
  HS02004807HS02004802       115.595       214.452         5.429         0.596         3.189
  YS02001759YS02001757       310.681       570.268         6.212         0.433         3.037
  YS02001762YS02001759       191.328       353.025         3.962         0.280         1.954
  YS02001765YS02001762       192.667       356.348         4.008         0.284         1.979
  YS02001770YS02001767       195.342       363.670         3.897         0.263         1.895
  YS02001774YS02001770       304.821       589.814         5.869         0.392         2.837
  YS02001779YS02001774       304.279       588.767         5.955         0.405         2.897
  YS02001649YS02001757       396.212       718.852         8.032         0.550         3.876
  YS02001767YS02001765       194.408       360.388         4.055         0.287         2.004
  YS02006561YS02001783      1021.317      1892.608        21.481         1.608        10.701
  YS02001783YS02001784      1021.249      1892.531        21.478         1.608        10.699
  YS02001784YS02001785      1028.627      1904.389        22.191         1.697        11.145
  YS02001788YS02001790      1029.284      1905.498        22.265         1.706        11.192
  YS02001790YS02001791      1030.351      1907.255        22.366         1.719        11.255
  YS02001791YS02001793      1030.338      1907.256        22.363         1.719        11.253
  YS02001910YS02001907       392.446       723.440         9.555         0.740         4.916
  YS02001786YS02001788      1028.891      1904.866        22.220         1.701        11.164
  YS02001915YS02001910       392.467       723.457         9.506         0.733         4.884
  YS02001918YS02001915       192.336       339.650         5.399         0.495         2.919
  YS02001923YS02001920       169.199       301.198         3.393         0.249         1.674
  YS02001926YS02001923       167.284       297.908         3.290         0.237         1.613
  YS02001929YS02001926       164.838       293.764         3.137         0.219         1.520
  YS02001920YS02001918       190.092       334.946         5.334         0.490         2.884
  YS02001629YS02163301        96.102       169.939         2.028         0.131         0.946
  YS02001619YS02001622       175.887       321.160         3.602         0.236         1.684
  YS02001622YS02001625       174.709       319.294         3.573         0.234         1.671
  YS02001625YS02001629        97.192       171.719         2.053         0.132         0.957
  YS02163301YS02001633        96.477       170.835         2.031         0.132         0.948
  YS02163601YS02164001       405.749       733.215         7.899         0.562         3.784
  YS02164001YS02001641       405.241       732.359         7.879         0.560         3.773
  YS02001641YS02001644       405.289       732.364         7.874         0.560         3.770
  YS02001647YS02001649       506.111       929.047        10.150         0.701         4.863
  YS02006553YS02006556       687.048      1262.346        14.849         1.142         7.485
  YS02006556YS02006558       687.165      1262.560        14.823         1.138         7.467
  YSB6556YSB1171              26.521        51.967         0.537         0.045         0.271
  YS02001907YS02006553       687.038      1262.344        14.855         1.142         7.489
  YS02006558YS02006561      1021.213      1892.397        21.479         1.608        10.700
  YS02001633YS02163601       406.455       734.306         7.879         0.558         3.768
  YS02001644YS02001647       511.504       938.977        10.227         0.707         4.897
  YS02001745YS02001748       249.341       466.361         5.435         0.373         2.693
  YS02001748YS02001751       247.554       462.971         5.478         0.382         2.729
  YS02001751YS02001754       246.732       461.593         5.482         0.384         2.735
  YS02001754YS02001757       247.494       462.737         5.647         0.407         2.842
  YS02001882YS02001884         2.590         4.452         0.053         0.004         0.027
  YS02001884YS02001887         6.698        11.875         0.132         0.010         0.066
  YS02001890YS02001895       451.198       846.891         8.306         0.625         4.051
  YS02001895YS02001898       451.064       846.736         8.300         0.624         4.048
  YS02001898YS02001901       450.921       846.505         8.297         0.624         4.046
  YS02001901YS02001904       450.832       846.413         8.304         0.625         4.052
  YS02001904YS02001907       451.144       846.925         8.359         0.632         4.087
  YS02001887YS02001890       468.447       881.100         8.649         0.653         4.224
  YS02001652YS02001649       208.745       386.931         4.213         0.303         1.974
  YS02001655YS02001652       209.656       388.377         4.236         0.304         1.986
  YS02001658YS02001655       209.448       388.012         4.157         0.293         1.932
  YS02001661YS02001658       213.081       394.415         4.232         0.299         1.967
  YS02001664YS02001661       220.298       405.995         4.400         0.310         2.043
  YSB1154YSB6556              26.085        51.271         0.486         0.038         0.239
  YSB1174YSB1171              18.020        35.560         0.361         0.029         0.181
  YSB1171HS02004479           46.092        90.059         1.040         0.092         0.540
  HS02004881HS02006253        51.620       102.886         1.111         0.081         0.545
  YS02001793JiankangQianchi      1030.359      1907.253        22.360         1.718        11.251
  YS02001757CaochengTiaoxuchi       517.984       942.990        10.868         0.784         5.348
  WSF200WS02003060           720.289      1352.262        19.444         1.740        10.319
  1                         2236.460      3858.367       145.384        17.168        88.106
  CC-Pump-1                   85.209       156.121         1.773         0.129         0.873
  CC-Pump-2                   53.135        97.305         1.108         0.081         0.545
  JK-Pump-1                  254.586       474.557         5.507         0.425         2.773
  JK-Pump-2                  548.339      1028.378        11.419         0.858         5.686
  XR-Pump-1                  394.171       651.648        32.681         4.002        20.183
  XR-Pump-2                  357.609       593.152        29.184         3.565        17.998
  XR-Pump-3                  317.252       528.581        25.310         3.081        15.577
  XR-Pump-4                  317.252       528.581        25.310         3.081        15.577
  

  Analysis begun on:  Thu Jul 15 10:14:49 2021
  Analysis ended on:  Thu Jul 15 10:14:52 2021
  Total elapsed time: 00:00:03