
  EPA STORM WATER MANAGEMENT MODEL - VERSION 5.1 (Build 5.3.0.dev0)
  --------------------------------------------------------------

  WARNING 04: minimum elevation drop used for Conduit WS02004404WS02004405
  WARNING 03: negative offset ignored for Link YS02001904YS02001907
  
  *********************************************************
  NOTE: The summary statistics displayed in this report are
  based on results found at every computational time step,  
  not just on results from each reporting time step.
  *********************************************************
  
  ****************
  Analysis Options
  ****************
  Flow Units ............... LPS
  Process Models:
    Rainfall/Runoff ........ YES
    RDII ................... NO
    Snowmelt ............... NO
    Groundwater ............ NO
    Flow Routing ........... YES
    Ponding Allowed ........ NO
    Water Quality .......... YES
  Infiltration Method ...... HORTON
  Flow Routing Method ...... DYNWAVE
  Surcharge Method ......... EXTRAN
  Starting Date ............ 08/28/2015 08:00:00
  Ending Date .............. 08/28/2015 15:50:00
  Antecedent Dry Days ...... 8.0
  Report Time Step ......... 00:01:00
  Wet Time Step ............ 00:01:00
  Dry Time Step ............ 00:01:00
  Routing Time Step ........ 5.00 sec
  Variable Time Step ....... YES
  Maximum Trials ........... 8
  Number of Threads ........ 4
  Head Tolerance ........... 0.001500 m
  
  
  **************************        Volume         Depth
  Runoff Quantity Continuity     hectare-m            mm
  **************************     ---------       -------
  Total Precipitation ......         6.144        13.452
  Evaporation Loss .........         0.000         0.000
  Infiltration Loss ........         1.064         2.328
  Surface Runoff ...........         4.147         9.079
  Final Storage ............         0.935         2.047
  Continuity Error (%) .....        -0.020
  
  
  **************************           COD            SS            TN            TP         NH4-N
  Runoff Quality Continuity             kg            kg            kg            kg            kg
  **************************    ----------    ----------    ----------    ----------    ----------
  Initial Buildup ..........     41378.656     70582.865      1804.177       168.684      1032.807
  Surface Buildup ..........        21.799        40.924         2.400         0.218         1.395
  Wet Deposition ...........         0.000         0.000         0.000         0.000         0.000
  Sweeping Removal .........         0.000         0.000         0.000         0.000         0.000
  Infiltration Loss ........        97.311       184.943         1.849         0.130         0.881
  BMP Removal ..............         0.000         0.000         0.000         0.000         0.000
  Surface Runoff ...........      3769.819      7064.251        72.781         4.964        34.599
  Remaining Buildup ........     37531.916     63371.884      1731.919       163.806       998.709
  Continuity Error (%) .....         0.003         0.004         0.002         0.001         0.001
  
  
  **************************        Volume        Volume
  Flow Routing Continuity        hectare-m      10^6 ltr
  **************************     ---------     ---------
  Dry Weather Inflow .......         0.616         6.165
  Wet Weather Inflow .......         4.145        41.453
  Groundwater Inflow .......         0.000         0.000
  RDII Inflow ..............         0.000         0.000
  External Inflow ..........         0.102         1.024
  External Outflow .........         1.803        18.033
  Flooding Loss ............         2.632        26.325
  Evaporation Loss .........         0.000         0.000
  Exfiltration Loss ........         0.000         0.000
  Initial Stored Volume ....         0.076         0.761
  Final Stored Volume ......         0.646         6.463
  Continuity Error (%) .....        -2.873
  
  
  **************************           COD            SS            TN            TP         NH4-N
  Quality Routing Continuity            kg            kg            kg            kg            kg
  **************************    ----------    ----------    ----------    ----------    ----------
  Dry Weather Inflow .......      1541.201      2465.922       147.955        18.494        92.472
  Wet Weather Inflow .......      3769.208      7063.266        72.767         4.964        34.593
  Groundwater Inflow .......         0.000         0.000         0.000         0.000         0.000
  RDII Inflow ..............         0.000         0.000         0.000         0.000         0.000
  External Inflow ..........       183.418       293.469        17.608         2.201        11.005
  External Outflow .........      2231.649      3850.890       145.663        17.213        88.307
  Flooding Loss ............      2553.533      4747.893        64.603         5.562        33.792
  Exfiltration Loss ........         0.000         0.000         0.000         0.000         0.000
  Mass Reacted .............         0.000         0.000         0.000         0.000         0.000
  Initial Stored Mass ......         0.000         0.000         0.000         0.000         0.000
  Final Stored Mass ........       562.635       974.523        24.565         2.614        14.198
  Continuity Error (%) .....         2.658         2.539         1.468         1.050         1.284
  
  
  *************************
  Highest Continuity Errors
  *************************
  Node HS02004842 (13.41%)
  Node JK-storage (-13.38%)
  Node YS02001884 (9.44%)
  Node HS02004817 (2.53%)
  Node YSB1171 (2.46%)
  
  
  ***************************
  Time-Step Critical Elements
  ***************************
  Link WS02006252WS02006251 (46.76%)
  Link WS02006280WS02006229 (11.63%)
  Link WS02006238WS02006235 (10.27%)
  Link YS02001793JiankangQianchi (7.33%)
  Link YS02006556YS02006558 (5.76%)
  
  
  ********************************
  Highest Flow Instability Indexes
  ********************************
  Link WS02006113WS02006111 (45)
  Link YS02163601YS02164001 (29)
  Link YS02163301YS02001633 (29)
  Link YS02001629YS02163301 (29)
  Link YS02001619YS02001622 (28)
  
  
  *************************
  Routing Time Step Summary
  *************************
  Minimum Time Step           :     0.50 sec
  Average Time Step           :     1.48 sec
  Maximum Time Step           :     5.00 sec
  Percent in Steady State     :    -0.00
  Average Iterations per Step :     3.83
  Percent Not Converging      :    14.20
  
  
  ***************************
  Subcatchment Runoff Summary
  ***************************
  
  ------------------------------------------------------------------------------------------------------------------------------
                            Total      Total      Total      Total     Imperv       Perv      Total       Total     Peak  Runoff
                           Precip      Runon       Evap      Infil     Runoff     Runoff     Runoff      Runoff   Runoff   Coeff
  Subcatchment                 mm         mm         mm         mm         mm         mm         mm    10^6 ltr      LPS
  ------------------------------------------------------------------------------------------------------------------------------
  sub0                      13.45       0.00       0.00       0.63      12.47       0.31      12.77        0.01     3.75   0.950
  sub1                      13.45       0.00       0.00       1.12      11.88       0.36      12.24        0.08    25.66   0.910
  sub2                      13.45       0.00       0.00       4.44       8.39       0.53       8.92        0.08    25.29   0.663
  sub3                      13.45       0.00       0.00       4.56       8.35       0.42       8.77        0.20    55.75   0.652
  sub4                      13.45       0.00       0.00       1.22      11.71       0.26      11.97        0.25    65.52   0.890
  sub5                      13.45       0.00       0.00       0.68      12.41       0.26      12.67        0.14    44.76   0.942
  sub7                      13.45       0.00       0.00       0.86      12.18       0.35      12.53        0.04    14.26   0.931
  sub8                      13.45       0.00       0.00       0.87      12.17       0.34      12.50        0.08    26.26   0.930
  sub9                      13.45       0.00       0.00       0.88      12.17       0.33      12.50        0.06    19.64   0.929
  sub10                     13.45       0.00       0.00       0.78      12.29       0.29      12.58        0.14    44.00   0.935
  sub11                     13.45       0.00       0.00       0.77      12.30       0.31      12.61        0.15    48.45   0.938
  sub12                     13.45       0.00       0.00       1.25      11.66       0.50      12.16        0.11    38.10   0.904
  sub14                     13.45       0.00       0.00       0.88      12.16       0.33      12.49        0.12    38.67   0.929
  sub15                     13.45       0.00       0.00       3.37       9.35       0.66      10.01        0.17    57.01   0.744
  sub16                     13.45       0.00       0.00       3.56       8.97       0.88       9.85        0.10    37.63   0.732
  sub17                     13.45       0.00       0.00       3.47       9.10       0.84       9.94        0.09    30.67   0.739
  sub22                     13.45       0.00       0.00       4.98       7.63       0.81       8.43        0.53   184.54   0.627
  sub23                     13.45       0.00       0.00       4.17       8.43       0.81       9.24        0.44   154.22   0.687
  sub60                     13.45       0.00       0.00       1.53       9.85       0.09       9.93        3.01   438.14   0.738
  sub61                     13.45       0.00       0.00       2.16       9.95       0.12      10.07        3.11   536.45   0.749
  sub62                     13.45       0.00       0.00       0.98      10.84       0.10      10.94        3.36   552.35   0.813
  sub63                     13.45       0.00       0.00       3.77       8.69       0.14       8.83        2.67   492.63   0.656
  sub64                     13.45       0.00       0.00       1.93       9.45       0.09       9.54        2.90   416.72   0.709
  sub65                     13.45       0.00       0.00       1.67       9.61       0.08       9.70        2.98   423.09   0.721
  sub66                     13.45       0.00       0.00       3.81       8.10       0.09       8.18        2.51   380.66   0.608
  sub67                     13.45       0.00       0.00       0.95      11.38       0.13      11.51        3.55   679.52   0.856
  sub68                     13.45       0.00       0.00       1.75      10.45       0.13      10.59        3.26   586.26   0.787
  sub69                     13.45       0.00       0.00       1.83      10.79       0.19      10.98        2.57   544.72   0.816
  sub70                     13.45      11.20       0.00       7.51      14.65       0.88      15.52        3.55   494.81   0.630
  sub71                     13.45       0.00       0.00       0.99      10.58       0.09      10.67        2.52   389.24   0.793
  sub72                     13.45       0.00       0.00       0.89       8.56       0.05       8.61        1.75   189.18   0.640
  1                         13.45      15.11       0.00       1.37      16.56       4.63      21.19        4.98   484.42   0.742
  2                         13.45       0.00       0.00       3.02       3.21       1.96       5.17        2.07   340.45   0.384
  
  
  ****************************
  Subcatchment Washoff Summary
  ****************************
  
  ------------------------------------------------------------------------------------------
                                 COD            SS            TN            TP         NH4-N
  Subcatchment                    kg            kg            kg            kg            kg
  ------------------------------------------------------------------------------------------
  sub0                         2.670         5.197         0.046         0.004         0.022
  sub1                        11.241        22.423         0.210         0.015         0.101
  sub2                         6.894        13.384         0.145         0.010         0.067
  sub3                        16.924        32.573         0.350         0.024         0.161
  sub4                        25.772        51.904         0.510         0.031         0.245
  sub5                        25.778        50.682         0.460         0.035         0.223
  sub7                         5.751        11.638         0.108         0.007         0.052
  sub8                         8.581        17.755         0.171         0.010         0.082
  sub9                         7.353        15.005         0.142         0.009         0.068
  sub10                       21.202        42.223         0.389         0.028         0.188
  sub11                       20.657        41.614         0.386         0.026         0.187
  sub12                       17.724        35.094         0.321         0.024         0.155
  sub14                       15.732        31.800         0.298         0.020         0.144
  sub15                       20.231        39.321         0.389         0.028         0.182
  sub16                       13.129        25.518         0.249         0.019         0.117
  sub17                       12.049        23.208         0.222         0.017         0.105
  sub22                       62.582       119.432         1.186         0.090         0.554
  sub23                       36.683        72.439         0.776         0.051         0.357
  sub60                      243.520       456.962         4.842         0.298         2.321
  sub61                      302.151       564.434         5.627         0.386         2.710
  sub62                      313.722       596.076         6.119         0.388         2.938
  sub63                      223.275       410.850         4.468         0.314         2.075
  sub64                      305.877       553.773         5.626         0.410         2.687
  sub65                      313.037       569.066         5.795         0.415         2.772
  sub66                      176.068       321.340         3.608         0.236         1.687
  sub67                      466.222       877.505         8.365         0.616         4.045
  sub68                      332.037       626.413         6.347         0.429         3.034
  sub69                      298.258       568.561         5.590         0.393         2.674
  sub70                      502.897       962.303        10.037         0.699         4.710
  sub71                      206.745       396.330         4.242         0.246         2.030
  sub72                      164.385       293.107         3.069         0.210         1.476
  1                          349.075       671.606         7.102         0.495         3.297
  2                           42.749        75.577         1.214         0.073         0.518
  ------------------------------------------------------------------------------------------
  System                    4570.974      8595.115        88.408         6.057        41.983
  
  
  ******************
  Node Depth Summary
  ******************
  
  ---------------------------------------------------------------------------------
                                 Average  Maximum  Maximum  Time of Max    Reported
                                   Depth    Depth      HGL   Occurrence   Max Depth
  Node                 Type       Meters   Meters   Meters  days hr:min      Meters
  ---------------------------------------------------------------------------------
  WS02001211           JUNCTION     0.76     0.85     5.68     0  03:07        0.85
  WS02001212           JUNCTION     0.47     0.58     5.64     0  03:07        0.58
  WS02001213           JUNCTION     0.70     0.85     5.61     0  03:06        0.85
  WS02003069           JUNCTION     0.48     0.72     5.30     0  03:05        0.72
  WS02003072           JUNCTION     0.54     0.76     5.13     0  03:06        0.76
  WS02003073           JUNCTION     0.33     0.48     4.54     0  03:06        0.48
  WS02003060           JUNCTION     0.42     0.63     5.56     0  03:05        0.63
  WS02003066           JUNCTION     0.22     0.39     5.94     0  03:04        0.39
  WS02003059           JUNCTION     0.75     0.91     5.59     0  03:05        0.91
  WS02003067           JUNCTION     0.53     0.82     6.14     0  03:03        0.82
  WS02004401           JUNCTION     0.65     1.24     7.24     0  03:01        1.23
  WS02004402           JUNCTION     0.68     1.23     7.19     0  03:01        1.22
  WS02004403           JUNCTION     0.70     1.20     7.13     0  03:01        1.20
  WS02004404           JUNCTION     0.77     1.25     7.10     0  03:01        1.24
  WS02004406           JUNCTION     0.78     1.17     7.00     0  03:01        1.16
  WS02004409           JUNCTION     0.45     0.96     6.73     0  03:03        0.96
  WS02004410           JUNCTION     0.47     0.95     6.67     0  03:03        0.95
  WS02004411           JUNCTION     0.49     0.93     6.61     0  03:03        0.93
  WS02004412           JUNCTION     0.50     0.90     6.54     0  03:03        0.90
  WS02004413           JUNCTION     0.65     1.02     6.49     0  03:03        1.02
  WS02004405           JUNCTION     0.77     1.22     7.07     0  03:01        1.21
  WS02006109           JUNCTION     0.75     1.67     8.28     0  03:02        1.65
  WS02006110           JUNCTION     0.73     1.46     8.04     0  03:01        1.44
  WS02006111           JUNCTION     0.22     0.89     7.60     0  03:01        0.88
  WS02006112           JUNCTION     0.83     1.57     7.45     0  03:01        1.55
  WS02006113           JUNCTION     0.33     0.93     7.82     0  03:02        0.92
  WS02006115           JUNCTION     0.54     1.23     7.37     0  03:01        1.21
  WS02006116           JUNCTION     0.62     1.27     7.31     0  03:01        1.25
  WS02006230           JUNCTION     0.72     1.88     8.63     0  03:02        1.88
  WS02006231           JUNCTION     0.48     1.53     8.65     0  03:02        1.52
  WS02006232           JUNCTION     0.61     1.63     8.67     0  03:02        1.62
  WS02006234           JUNCTION     0.53     1.53     8.69     0  03:02        1.52
  WS02006235           JUNCTION     0.56     1.55     8.71     0  03:02        1.53
  WS02006238           JUNCTION     0.58     1.56     8.71     0  03:02        1.55
  WS02006240           JUNCTION     0.47     1.41     8.70     0  03:02        1.40
  WS02006242           JUNCTION     0.52     1.43     8.70     0  03:01        1.42
  WS02006243           JUNCTION     0.39     1.28     8.70     0  03:03        1.27
  WS02006245           JUNCTION     0.37     1.26     8.74     0  04:31        1.20
  WS02006247           JUNCTION     0.37     1.24     8.74     0  04:31        1.19
  WS02006248           JUNCTION     0.32     1.10     8.69     0  03:01        1.10
  WS02006249           JUNCTION     0.34     1.09     8.69     0  03:01        1.09
  WS02006239           JUNCTION     0.53     1.49     8.70     0  03:02        1.48
  WS02006251           JUNCTION     0.31     1.09     8.76     0  03:01        1.03
  WS02006252           JUNCTION     0.20     0.59     8.83     0  05:39        0.59
  WS02006253           JUNCTION     0.34     1.16     8.80     0  03:01        1.06
  WS02006256           JUNCTION     1.68     2.35     9.28     0  00:00        2.35
  WS02004138           JUNCTION     0.19     0.20     7.45     0  00:00        0.19
  WS02004139           JUNCTION     0.71     0.79     5.70     0  03:07        0.79
  WS02004407           JUNCTION     0.21     0.40     6.71     0  03:02        0.40
  WS02006228           JUNCTION     0.75     1.84     8.49     0  03:02        1.83
  WS02006229           JUNCTION     0.73     1.91     8.60     0  03:02        1.90
  WS02006280           JUNCTION     0.07     0.31     8.58     0  03:00        0.30
  WS02006284           JUNCTION     0.37     0.65     9.04     0  03:02        0.64
  WS02006287           JUNCTION     0.10     0.39     9.34     0  03:02        0.39
  WSF200               JUNCTION     0.20     0.44     5.67     0  03:04        0.44
  HS02004901           JUNCTION     0.13     0.38    10.20     0  03:01        0.37
  HS02004881           JUNCTION     0.01     0.05     9.08     0  03:01        0.05
  HS02004876           JUNCTION     0.05     0.16     9.19     0  03:01        0.16
  HS02004870           JUNCTION     0.02     0.09     9.38     0  03:01        0.09
  HS02004862           JUNCTION     0.02     0.11     9.49     0  03:01        0.11
  HS02004856           JUNCTION     0.08     0.15     9.58     0  03:01        0.15
  HS02004852           JUNCTION     0.01     0.07     9.59     0  03:02        0.07
  HS02004848           JUNCTION     0.01     0.07     9.67     0  03:01        0.07
  HS02004842           JUNCTION     0.34     0.40     9.67     0  03:01        0.40
  HS02004837           JUNCTION     0.03     0.09     9.67     0  03:01        0.09
  HS02004830           JUNCTION     0.04     0.10     9.57     0  03:01        0.10
  HS02004824           JUNCTION     0.03     0.13     9.53     0  03:02        0.13
  HS02004817           JUNCTION     0.45     0.69     9.54     0  03:02        0.69
  HS02004807           JUNCTION     0.13     0.36     9.53     0  03:02        0.36
  HS02004802           JUNCTION     0.17     0.39     9.52     0  03:02        0.39
  HS02004799           JUNCTION     0.13     0.46     9.68     0  03:01        0.46
  HS02004792           JUNCTION     0.04     0.22     9.74     0  03:01        0.21
  HS02004788           JUNCTION     0.03     0.16    10.05     0  03:02        0.16
  HS02004785           JUNCTION     0.05     0.25    10.15     0  03:02        0.25
  HS02004777           JUNCTION     0.15     0.39    10.19     0  03:01        0.39
  HS02004770           JUNCTION     0.12     0.37    10.20     0  03:01        0.36
  HS02004480           JUNCTION     0.09     0.38     9.62     0  03:01        0.38
  HS02004479           JUNCTION     0.12     0.42     9.62     0  03:01        0.42
  HS02004478           JUNCTION     0.07     0.28     9.50     0  03:01        0.28
  YS02001745           JUNCTION     0.72     0.96     8.48     0  03:12        0.96
  YS02001748           JUNCTION     1.11     1.61     8.69     0  02:32        1.39
  YS02001751           JUNCTION     1.29     1.59     8.47     0  03:18        1.59
  YS02001754           JUNCTION     1.54     1.86     8.46     0  03:19        1.85
  YS02001762           JUNCTION     1.73     2.05     8.45     0  03:19        2.05
  YS02001765           JUNCTION     1.69     2.00     8.45     0  03:19        1.99
  YS02001767           JUNCTION     1.65     1.95     8.44     0  03:18        1.95
  YS02001770           JUNCTION     1.64     1.94     8.43     0  03:00        1.93
  YS02001774           JUNCTION     1.71     1.99     8.41     0  03:00        1.98
  YS02001779           JUNCTION     1.46     1.68     8.37     0  02:40        1.68
  YS02001882           JUNCTION     0.55     1.64     8.35     0  03:00        1.63
  YS02001884           JUNCTION     0.64     1.74     8.35     0  03:00        1.73
  YS02001759           JUNCTION     1.77     2.09     8.46     0  03:18        2.09
  YS02001887           JUNCTION     0.72     1.81     8.35     0  02:59        1.81
  YS02001890           JUNCTION     0.75     1.81     8.32     0  02:48        1.81
  YS02001898           JUNCTION     0.52     1.56     8.30     0  02:56        1.56
  YS02001901           JUNCTION     0.63     1.68     8.29     0  02:58        1.67
  YS02001904           JUNCTION     0.61     1.64     8.27     0  02:53        1.63
  YS02001907           JUNCTION     0.94     1.96     8.25     0  02:48        1.96
  YS02001910           JUNCTION     0.73     1.79     8.30     0  02:49        1.78
  YS02001915           JUNCTION     0.53     1.60     8.32     0  02:49        1.58
  YS02001918           JUNCTION     0.28     1.29     8.36     0  02:49        1.27
  YS02001619           JUNCTION     1.25     1.54     8.47     0  02:31        1.49
  YS02001629           JUNCTION     1.59     1.85     8.40     0  02:31        1.84
  YS02001641           JUNCTION     1.69     1.94     8.37     0  02:59        1.93
  YS02001644           JUNCTION     1.70     1.92     8.35     0  02:39        1.92
  YS02001652           JUNCTION     1.55     2.03     8.63     0  02:43        1.85
  YS02001655           JUNCTION     1.31     1.97     8.82     0  02:43        1.60
  YS02001920           JUNCTION     0.38     1.38     8.39     0  02:49        1.34
  YS02001923           JUNCTION     0.22     1.14     8.40     0  02:49        1.10
  YS02001926           JUNCTION     0.28     0.96     8.40     0  02:49        0.91
  YS02001929           JUNCTION     0.16     0.71     8.41     0  02:49        0.69
  YS02001658           JUNCTION     1.05     1.88     9.03     0  02:43        1.32
  YS02001661           JUNCTION     0.82     1.80     9.21     0  02:43        1.08
  YS02001664           JUNCTION     0.37     0.56     8.49     0  02:42        0.55
  YS02001622           JUNCTION     1.27     1.52     8.42     0  02:31        1.50
  YS02001633           JUNCTION     1.69     1.95     8.40     0  02:58        1.94
  YS02001649           JUNCTION     1.74     2.05     8.44     0  02:42        2.05
  YS02001757           JUNCTION     1.87     2.20     8.46     0  03:18        2.19
  YS02001895           JUNCTION     0.51     1.57     8.31     0  02:58        1.56
  YS02001625           JUNCTION     1.55     1.78     8.38     0  02:31        1.78
  YS02163301           JUNCTION     1.62     1.88     8.40     0  02:54        1.88
  YS02163601           JUNCTION     1.74     1.99     8.39     0  02:55        1.98
  YS02164001           JUNCTION     1.67     1.92     8.38     0  02:39        1.91
  YS02001647           JUNCTION     1.53     1.80     8.41     0  02:48        1.79
  YSB1154              JUNCTION     0.26     0.57     9.62     0  03:01        0.57
  YSB6556              JUNCTION     0.16     0.45     9.62     0  03:02        0.45
  YSB1174              JUNCTION     0.22     0.52     9.62     0  03:01        0.51
  YSB1171              JUNCTION     0.42     0.72     9.62     0  03:01        0.72
  YS02006553           JUNCTION     0.94     1.97     8.26     0  03:00        1.96
  YS02006561           JUNCTION     0.31     1.08     7.74     0  03:00        1.07
  YS02006556           JUNCTION     0.91     1.94     8.25     0  03:00        1.93
  YS02006558           JUNCTION     0.95     1.98     8.24     0  03:00        1.97
  YS02001783           JUNCTION     0.53     1.91     8.05     0  02:28        1.45
  YS02001784           JUNCTION     0.55     1.59     7.66     0  02:28        1.39
  YS02001786           JUNCTION     0.49     1.25     7.28     0  02:28        1.23
  YS02001788           JUNCTION     0.42     1.16     7.13     0  02:28        1.09
  YS02001790           JUNCTION     0.55     1.96     7.60     0  02:27        1.25
  YS02001791           JUNCTION     0.51     2.72     8.19     0  02:27        1.24
  YS02001793           JUNCTION     0.71     1.93     6.76     0  02:27        1.79
  WSC                  OUTFALL      0.33     0.48     1.15     0  03:07        0.48
  JK-storage           STORAGE      2.71     5.80     6.60     0  02:28        5.80
  CC-storage           STORAGE      1.12     1.46     8.46     0  03:13        1.46
  XR-storage           STORAGE      6.48     7.72     5.72     0  02:59        7.72
  
  
  *******************
  Node Inflow Summary
  *******************
  
  -------------------------------------------------------------------------------------------------
                                  Maximum  Maximum                  Lateral       Total        Flow
                                  Lateral    Total  Time of Max      Inflow      Inflow     Balance
                                   Inflow   Inflow   Occurrence      Volume      Volume       Error
  Node                 Type           LPS      LPS  days hr:min    10^6 ltr    10^6 ltr     Percent
  -------------------------------------------------------------------------------------------------
  WS02001211           JUNCTION      7.35   391.85     0  03:16       0.207        10.1       0.402
  WS02001212           JUNCTION      0.00   396.40     0  03:16           0          10       0.240
  WS02001213           JUNCTION      0.00   400.36     0  03:15           0          10       0.287
  WS02003069           JUNCTION      0.32  1323.41     0  03:05     0.00902        18.1       0.192
  WS02003072           JUNCTION      0.00  1322.89     0  03:05           0        18.1       0.231
  WS02003073           JUNCTION      1.82  1325.33     0  03:06      0.0514        18.1       0.268
  WS02003060           JUNCTION     16.53  1323.18     0  03:04       0.466        18.1       0.181
  WS02003066           JUNCTION      0.00   939.01     0  03:04           0        7.72       0.058
  WS02003059           JUNCTION      0.00   405.25     0  03:15           0        9.99       0.400
  WS02003067           JUNCTION      0.00   937.93     0  03:04           0        7.73       0.120
  WS02004401           JUNCTION      0.00   942.19     0  03:02           0        7.96       0.256
  WS02004402           JUNCTION      0.00   942.13     0  03:02           0        7.94       0.243
  WS02004403           JUNCTION      0.00   942.47     0  03:02           0        7.92       0.223
  WS02004404           JUNCTION      0.16   942.81     0  03:02     0.00457        7.91       0.167
  WS02004406           JUNCTION      0.00   943.09     0  03:02           0        7.87       0.409
  WS02004409           JUNCTION      0.00   941.82     0  03:02           0        7.83       0.204
  WS02004410           JUNCTION      0.00   938.06     0  03:03           0        7.82       0.232
  WS02004411           JUNCTION      0.00   936.47     0  03:03           0         7.8       0.239
  WS02004412           JUNCTION      0.00   936.43     0  03:03           0        7.78       0.260
  WS02004413           JUNCTION      0.00   937.74     0  03:04           0        7.76       0.387
  WS02004405           JUNCTION      0.04   943.26     0  03:02     0.00107        7.89       0.256
  WS02006109           JUNCTION      1.23   916.67     0  03:03      0.0347        7.98       0.211
  WS02006110           JUNCTION      0.00   916.85     0  03:02           0        7.97       0.232
  WS02006111           JUNCTION      0.00   917.23     0  03:03           0        7.94       0.044
  WS02006112           JUNCTION     30.67   941.15     0  03:02      0.0853        8.02       0.329
  WS02006113           JUNCTION      0.00   916.81     0  03:02           0        7.95       0.114
  WS02006115           JUNCTION      0.00   941.67     0  03:02           0           8       0.237
  WS02006116           JUNCTION      0.00   942.35     0  03:02           0        7.98       0.233
  WS02006230           JUNCTION     10.28   508.54     0  05:42        0.29        5.56       0.228
  WS02006231           JUNCTION      0.00   495.40     0  05:42           0        5.28       0.162
  WS02006232           JUNCTION      0.00   495.45     0  05:42           0        5.29       0.296
  WS02006234           JUNCTION      0.00   495.49     0  05:42           0         5.3       0.082
  WS02006235           JUNCTION      0.00   495.59     0  05:43           0        5.39       0.218
  WS02006238           JUNCTION      0.00   321.49     0  06:42           0         1.9       0.110
  WS02006240           JUNCTION      0.00   337.11     0  06:42           0        1.83       0.487
  WS02006242           JUNCTION      0.00   346.78     0  06:41           0        1.81       0.584
  WS02006243           JUNCTION      0.00   355.95     0  06:41           0        1.79       0.025
  WS02006245           JUNCTION      0.00   360.95     0  06:41           0        1.78       0.402
  WS02006247           JUNCTION      0.00   365.61     0  06:41           0        1.78       0.124
  WS02006248           JUNCTION      0.00   370.13     0  06:40           0        1.78      -0.145
  WS02006249           JUNCTION      0.00   376.17     0  06:40           0         1.8       0.203
  WS02006239           JUNCTION      0.00   327.44     0  06:42           0        1.86       0.137
  WS02006251           JUNCTION      0.08   400.03     0  05:40     0.00217        1.85      -0.030
  WS02006252           JUNCTION      0.00   399.81     0  04:30           0        1.32       0.009
  WS02006253           JUNCTION      3.75   143.74     0  03:01      0.0103       0.523      -0.003
  WS02006256           JUNCTION      0.00   983.00     0  00:00           0        10.7      -0.002
  WS02004138           JUNCTION      0.00   380.00     0  00:00           0        9.92       0.065
  WS02004139           JUNCTION      0.32   396.51     0  00:00     0.00905        9.92       0.457
  WS02004407           JUNCTION      0.00   942.66     0  03:02           0        7.84       0.089
  WS02006228           JUNCTION      0.00   915.32     0  03:03           0        7.96       0.166
  WS02006229           JUNCTION      0.00   923.54     0  03:01           0        7.98       0.166
  WS02006280           JUNCTION      0.00   680.28     0  03:02           0        2.43       0.007
  WS02006284           JUNCTION      0.10   679.15     0  03:02      0.0027        2.43       0.045
  WS02006287           JUNCTION      0.00   677.81     0  03:02           0        2.43       0.031
  WSF200               JUNCTION      0.00   939.33     0  03:04           0        7.72       0.052
  HS02004901           JUNCTION     37.63    37.63     0  03:01       0.103       0.103       1.741
  HS02004881           JUNCTION     14.26   140.57     0  03:01      0.0422       0.463       0.058
  HS02004876           JUNCTION     25.66   127.67     0  03:01      0.0814       0.422       0.131
  HS02004870           JUNCTION     26.26   103.60     0  03:01      0.0799        0.34       0.035
  HS02004862           JUNCTION     25.49    79.38     0  03:01      0.0888       0.261       0.068
  HS02004856           JUNCTION     19.64    55.42     0  03:01      0.0601       0.173       0.841
  HS02004852           JUNCTION      0.00    37.85     0  03:01           0       0.113       0.053
  HS02004848           JUNCTION     55.75    55.75     0  03:01       0.197       0.197       0.029
  HS02004842           JUNCTION      0.00    16.85     0  03:01           0       0.097      15.489
  HS02004837           JUNCTION     50.35    65.69     0  03:01       0.318       0.402       0.205
  HS02004830           JUNCTION      0.15    64.81     0  03:01     0.00423       0.392       0.316
  HS02004824           JUNCTION     65.57   128.44     0  03:01       0.251       0.642       0.086
  HS02004817           JUNCTION      0.60   124.47     0  03:01      0.0169       0.658       2.599
  HS02004807           JUNCTION     48.45   165.79     0  03:01       0.147       0.788       0.554
  HS02004802           JUNCTION      0.00   165.29     0  03:04           0       0.785       0.508
  HS02004799           JUNCTION     38.67   446.14     0  03:01       0.119        1.42       0.191
  HS02004792           JUNCTION    184.82   411.76     0  03:01        0.54         1.3       0.033
  HS02004788           JUNCTION     58.68   233.48     0  03:02       0.219       0.758       0.053
  HS02004785           JUNCTION      0.15   182.27     0  03:01     0.00423        0.54       0.094
  HS02004777           JUNCTION      0.03   185.06     0  03:01    0.000846       0.541       0.972
  HS02004770           JUNCTION    154.22   188.93     0  03:01       0.441       0.542       0.578
  HS02004480           JUNCTION      0.00   517.33     0  03:01           0        1.66       0.069
  HS02004479           JUNCTION      0.00    75.51     0  03:02           0       0.258       0.286
  HS02004478           JUNCTION      0.00   677.22     0  03:02           0        2.43       0.011
  YS02001745           JUNCTION    438.14   438.14     0  03:01        3.01        3.02       0.381
  YS02001748           JUNCTION      0.04   600.58     0  02:31     0.00127        3.01       0.687
  YS02001751           JUNCTION      0.01   441.82     0  03:01     0.00031        2.98       0.784
  YS02001754           JUNCTION      0.26   442.46     0  03:01     0.00733        2.96       0.853
  YS02001762           JUNCTION      0.00   326.21     0  03:18           0        2.27       0.943
  YS02001765           JUNCTION      0.00   326.21     0  03:18           0        2.27       1.091
  YS02001767           JUNCTION      0.54   326.50     0  03:18      0.0151         2.3       1.585
  YS02001770           JUNCTION    552.50   740.40     0  03:13        3.37        4.35       0.740
  YS02001774           JUNCTION      0.00   740.44     0  03:13           0        3.01       0.841
  YS02001779           JUNCTION      0.01   740.47     0  03:13    0.000141        2.98       0.518
  YS02001882           JUNCTION      0.00    18.01     0  02:30           0      0.0225       9.670
  YS02001884           JUNCTION      0.00    48.06     0  02:30           0      0.0613      10.425
  YS02001759           JUNCTION    536.49   622.42     0  02:43        3.11        4.37       0.524
  YS02001887           JUNCTION    679.97   680.29     0  03:01        3.57         3.6       0.227
  YS02001890           JUNCTION      0.00   679.73     0  03:01           0        3.55       0.251
  YS02001898           JUNCTION      0.00   517.74     0  03:01           0        3.45       0.073
  YS02001901           JUNCTION      0.00   517.70     0  03:01           0        3.45       0.193
  YS02001904           JUNCTION      0.00   517.61     0  03:01           0        3.44       0.162
  YS02001907           JUNCTION      0.00  1101.44     0  03:02           0        7.77       0.292
  YS02001910           JUNCTION      0.00   585.48     0  03:02           0        4.34       0.261
  YS02001915           JUNCTION    389.26   584.98     0  03:02        2.52        4.35       0.135
  YS02001918           JUNCTION      0.00   263.00     0  02:50           0        1.84       0.069
  YS02001619           JUNCTION    380.66   380.66     0  03:01        2.51        2.51       0.492
  YS02001629           JUNCTION      0.00   196.55     0  02:39           0        1.59       1.851
  YS02001641           JUNCTION      0.00   412.30     0  02:39           0        4.45       0.477
  YS02001644           JUNCTION    416.76  1566.76     0  03:11         2.9        12.2       0.223
  YS02001652           JUNCTION      0.00   500.57     0  03:01           0        2.62       0.916
  YS02001655           JUNCTION      0.15   500.12     0  03:01     0.00434        2.64       0.928
  YS02001920           JUNCTION      2.87   262.80     0  02:50      0.0809        1.84       0.146
  YS02001923           JUNCTION      0.04   239.57     0  02:50     0.00106        1.76       0.057
  YS02001926           JUNCTION      0.05   203.64     0  03:02     0.00147        1.75       0.190
  YS02001929           JUNCTION    189.18   189.18     0  03:01        1.75        1.75       0.039
  YS02001658           JUNCTION      0.00   581.18     0  02:29           0        2.67       0.770
  YS02001661           JUNCTION      0.00   661.82     0  02:43           0        2.89       0.309
  YS02001664           JUNCTION    492.63   492.63     0  03:01        2.67        2.88       0.208
  YS02001622           JUNCTION      0.00   381.42     0  03:01           0         2.5       1.292
  YS02001633           JUNCTION    423.29   423.29     0  03:01        2.99        4.52       0.721
  YS02001649           JUNCTION      0.00   873.70     0  02:40           0        6.99       0.533
  YS02001757           JUNCTION      0.00  1678.53     0  02:40           0        8.81       1.053
  YS02001895           JUNCTION      0.00   517.77     0  03:05           0        3.46       0.142
  YS02001625           JUNCTION      0.00   408.70     0  03:01           0        2.47       1.590
  YS02163301           JUNCTION      0.00   206.10     0  02:31           0        1.57       1.566
  YS02163601           JUNCTION      0.11   412.97     0  02:39      0.0031        4.48       0.677
  YS02164001           JUNCTION      0.00   412.82     0  02:39           0        4.46       0.462
  YS02001647           JUNCTION      0.00   846.67     0  03:16           0        6.27       0.449
  YSB1154              JUNCTION     44.76    44.76     0  03:01       0.144       0.144       1.017
  YSB6556              JUNCTION      0.00    43.27     0  03:01           0       0.145       0.869
  YSB1174              JUNCTION     38.10    38.10     0  03:01       0.106       0.107       1.222
  YSB1171              JUNCTION      0.00    76.90     0  03:01           0       0.257       2.526
  YS02006553           JUNCTION      0.00   707.67     0  03:47           0        6.75       0.216
  YS02006561           JUNCTION      0.00  1040.83     0  02:48           0        9.98       0.006
  YS02006556           JUNCTION      0.00   708.41     0  03:47           0        6.75       0.147
  YS02006558           JUNCTION    587.14  1041.13     0  02:49        3.28          10       0.044
  YS02001783           JUNCTION      0.00  1040.57     0  02:48           0        9.98       0.020
  YS02001784           JUNCTION      1.06  1041.51     0  02:48      0.0299          10       0.034
  YS02001786           JUNCTION      0.06  1041.59     0  02:48     0.00159          10       0.032
  YS02001788           JUNCTION      0.07  1041.96     0  02:48       0.002          10       0.022
  YS02001790           JUNCTION      0.15  1042.57     0  02:48     0.00437          10       0.012
  YS02001791           JUNCTION      0.00  1042.18     0  02:48           0          10      -0.001
  YS02001793           JUNCTION      0.00  1042.17     0  02:48           0          10      -0.009
  WSC                  OUTFALL       0.00  1326.34     0  03:07           0          18       0.000
  JK-storage           STORAGE       0.00  1042.24     0  02:48           0        10.2     -11.803
  CC-storage           STORAGE       0.00  1677.86     0  02:40           0        5.65       1.166
  XR-storage           STORAGE    1024.87  1024.87     0  03:01        12.7        13.3      -0.003
  
  
  **********************
  Node Surcharge Summary
  **********************
  
  Surcharging occurs when water rises above the top of the highest conduit.
  ---------------------------------------------------------------------
                                               Max. Height   Min. Depth
                                   Hours       Above Crown    Below Rim
  Node                 Type      Surcharged         Meters       Meters
  ---------------------------------------------------------------------
  WS02004401           JUNCTION        0.41          0.241        1.419
  WS02004402           JUNCTION        0.45          0.231        1.509
  WS02004403           JUNCTION        0.46          0.204        1.826
  WS02004404           JUNCTION        0.62          0.249        2.531
  WS02004406           JUNCTION        0.56          0.168        2.282
  WS02004413           JUNCTION        0.14          0.023        2.177
  WS02004405           JUNCTION        0.60          0.222        2.578
  WS02006109           JUNCTION        2.40          0.846        0.974
  WS02006110           JUNCTION        0.77          0.546        1.304
  WS02006111           JUNCTION        0.09          0.081        1.789
  WS02006112           JUNCTION        1.09          0.568        1.112
  WS02006113           JUNCTION        0.11          0.131        1.799
  WS02006115           JUNCTION        0.30          0.216        2.034
  WS02006116           JUNCTION        0.32          0.209        2.081
  WS02006230           JUNCTION        0.59          0.804        0.766
  WS02006231           JUNCTION        0.84          0.820        0.710
  WS02006232           JUNCTION        1.96          0.930        0.550
  WS02006234           JUNCTION        1.20          0.814        0.426
  WS02006235           JUNCTION        1.50          0.838        0.452
  WS02006238           JUNCTION        1.56          0.845        0.585
  WS02006240           JUNCTION        1.00          0.701        0.689
  WS02006242           JUNCTION        1.03          0.700        0.120
  WS02006243           JUNCTION        0.74          0.570        0.200
  WS02006245           JUNCTION        0.62          0.548        0.302
  WS02006247           JUNCTION        0.61          0.530        0.230
  WS02006248           JUNCTION        0.43          0.380        0.000
  WS02006249           JUNCTION        0.49          0.390        0.000
  WS02006239           JUNCTION        1.13          0.754        0.536
  WS02006251           JUNCTION        0.02          0.062        1.118
  WS02006252           JUNCTION        0.62          0.192        0.908
  WS02006253           JUNCTION        0.09          0.116        2.364
  WS02006256           JUNCTION        6.67          2.050        0.000
  WS02006228           JUNCTION        2.35          1.009        1.191
  YS02001748           JUNCTION        5.23          0.530        0.660
  YS02001751           JUNCTION        5.36          0.589        0.611
  YS02001754           JUNCTION        5.58          0.806        0.344
  YS02001762           JUNCTION        5.75          1.054        0.096
  YS02001765           JUNCTION        5.72          0.999        0.101
  YS02001767           JUNCTION        5.69          0.952        0.078
  YS02001770           JUNCTION        5.67          0.909        0.011
  YS02001774           JUNCTION        5.74          0.988        0.062
  YS02001779           JUNCTION        5.56          0.680        0.000
  YS02001882           JUNCTION        1.13          0.636        0.194
  YS02001884           JUNCTION        1.16          0.675        0.195
  YS02001759           JUNCTION        5.78          1.094        0.116
  YS02001887           JUNCTION        1.23          0.763        0.187
  YS02001890           JUNCTION        1.25          0.760        0.000
  YS02001898           JUNCTION        1.08          0.532        0.208
  YS02001901           JUNCTION        1.20          0.677        0.193
  YS02001904           JUNCTION        1.18          0.638        0.212
  YS02001907           JUNCTION        1.91          0.950        0.000
  YS02001910           JUNCTION        1.29          0.791        0.309
  YS02001915           JUNCTION        1.11          0.602        0.398
  YS02001918           JUNCTION        0.90          0.295        0.515
  YS02001619           JUNCTION        5.37          0.541        0.069
  YS02001629           JUNCTION        5.38          0.470        0.000
  YS02001641           JUNCTION        5.73          0.936        0.164
  YS02001644           JUNCTION        5.73          0.920        0.000
  YS02001652           JUNCTION        5.61          1.001        0.129
  YS02001655           JUNCTION        5.39          0.971        0.229
  YS02001920           JUNCTION        0.93          0.380        0.760
  YS02001658           JUNCTION        5.25          0.884        0.416
  YS02001661           JUNCTION        0.06          0.733        0.657
  YS02001622           JUNCTION        5.41          0.517        0.103
  YS02001633           JUNCTION        5.71          0.927        0.133
  YS02001649           JUNCTION        5.75          1.050        0.000
  YS02001757           JUNCTION        5.86          1.198        0.012
  YS02001895           JUNCTION        1.09          0.566        0.184
  YS02001625           JUNCTION        5.64          0.780        0.000
  YS02163301           JUNCTION        5.69          0.881        0.149
  YS02163601           JUNCTION        5.75          0.988        0.092
  YS02164001           JUNCTION        5.72          0.917        0.183
  YS02001647           JUNCTION        5.62          0.802        0.098
  YS02006553           JUNCTION        2.00          0.971        0.219
  YS02006561           JUNCTION        0.93          0.277        0.873
  YS02006556           JUNCTION        1.52          0.897        0.453
  YS02006558           JUNCTION        1.48          0.877        0.523
  YS02001783           JUNCTION        1.40          1.108        0.492
  YS02001784           JUNCTION        1.38          0.792        0.698
  YS02001786           JUNCTION        1.32          0.451        0.979
  YS02001788           JUNCTION        1.16          0.357        1.123
  YS02001790           JUNCTION        2.31          1.157        0.000
  YS02001791           JUNCTION        2.40          1.920        0.000
  YS02001793           JUNCTION        2.65          0.930        1.670
  
  
  *********************
  Node Flooding Summary
  *********************
  
  Flooding refers to all water that overflows a node, whether it ponds or not.
  --------------------------------------------------------------------------
                                                             Total   Maximum
                                 Maximum   Time of Max       Flood    Ponded
                        Hours       Rate    Occurrence      Volume     Depth
  Node                 Flooded       LPS   days hr:min    10^6 ltr    Meters
  --------------------------------------------------------------------------
  WS02006248              0.05     19.11      0  03:03       0.002     0.000
  WS02006249              0.08     69.62      0  03:01       0.012     0.000
  WS02006256              3.82    978.40      0  00:00       7.107     0.000
  YS02001779              3.21    740.47      0  03:13       2.966     0.000
  YS02001890              0.34    163.38      0  03:01       0.085     0.000
  YS02001907              0.76    690.51      0  03:02       1.014     0.000
  YS02001629              0.01     34.62      0  02:31       0.000     0.000
  YS02001644              4.88   1566.69      0  03:11      10.822     0.000
  YS02001649              0.07     29.71      0  02:43       0.001     0.000
  YS02001625              1.38    408.23      0  03:01       0.855     0.000
  YS02001790              0.01    214.57      0  02:27       0.000     0.000
  YS02001791              0.01    231.52      0  02:27       0.000     0.000
  JK-storage              0.95    688.67      0  02:30       0.846     0.000
  XR-storage              3.46    644.77      0  03:01       2.615     0.000
  
  
  **********************
  Storage Volume Summary
  **********************
  
  --------------------------------------------------------------------------------------------------
                         Average     Avg  Evap Exfil       Maximum     Max    Time of Max    Maximum
                          Volume    Pcnt  Pcnt  Pcnt        Volume    Pcnt     Occurrence    Outflow
  Storage Unit           1000 m3    Full  Loss  Loss       1000 m3    Full    days hr:min        LPS
  --------------------------------------------------------------------------------------------------
  JK-storage               0.136      47     0     0         0.291     100       0  02:28     983.00
  CC-storage               3.132      20     0     0         4.073      26       0  03:13     399.81
  XR-storage               0.777      84     0     0         0.926     100       0  02:59     380.00
  
  
  ***********************
  Outfall Loading Summary
  ***********************
  
  ---------------------------------------------------------------------------------------------------------------------------------
                         Flow       Avg       Max       Total         Total         Total         Total         Total         Total
                         Freq      Flow      Flow      Volume           COD            SS            TN            TP         NH4-N
  Outfall Node           Pcnt       LPS       LPS    10^6 ltr            kg            kg            kg            kg            kg
  ---------------------------------------------------------------------------------------------------------------------------------
  WSC                   99.98    678.36   1326.34      18.033      2231.810      3851.147       145.679        17.215        88.316
  ---------------------------------------------------------------------------------------------------------------------------------
  System                99.98    678.36   1326.34      18.033      2231.810      3851.147       145.679        17.215        88.316
  
  
  ********************
  Link Flow Summary
  ********************
  
  -----------------------------------------------------------------------------
                                 Maximum  Time of Max   Maximum    Max/    Max/
                                  |Flow|   Occurrence   |Veloc|    Full    Full
  Link                 Type          LPS  days hr:min     m/sec    Flow   Depth
  -----------------------------------------------------------------------------
  WS02003066WSF200     CONDUIT    939.33     0  03:04      3.00    0.16    0.32
  WS02006287WS02006284 CONDUIT    679.05     0  03:02      2.38    0.31    0.39
  WS02006284WS02006280 CONDUIT    680.28     0  03:02      2.62    0.28    0.37
  WS02006280WS02006229 CONDUIT    680.24     0  03:02      3.90    0.15    0.50
  WS02006229WS02006228 CONDUIT    915.32     0  03:03      1.82    3.03    1.00
  WS02006256WS02006235 CONDUIT    288.60     0  00:00      4.23    3.05    1.00
  WS02006253WS02006251 CONDUIT    151.97     0  03:01      0.59    0.46    1.00
  WS02006252WS02006251 CONDUIT    399.95     0  05:40      3.18    1.47    1.00
  WS02006251WS02006249 CONDUIT    376.17     0  06:40      1.13    1.08    1.00
  WS02006249WS02006248 CONDUIT    370.13     0  06:40      1.19    2.03    1.00
  WS02006248WS02006247 CONDUIT    365.61     0  06:41      1.16    0.80    1.00
  WS02006247WS02006245 CONDUIT    360.95     0  06:41      1.14    2.86    1.00
  WS02006245WS02006243 CONDUIT    355.95     0  06:41      1.18    1.05    1.00
  WS02006243WS02006242 CONDUIT    346.78     0  06:41      1.06    0.74    1.00
  WS02006242WS02006240 CONDUIT    337.11     0  06:42      1.00    1.34    1.00
  WS02006240WS02006239 CONDUIT    327.44     0  06:42      1.04    1.03    1.00
  WS02006239WS02006238 CONDUIT    321.49     0  06:42      0.94    1.03    1.00
  WS02006238WS02006235 CONDUIT    319.52     0  06:43      1.46    0.71    1.00
  WS02006235WS02006234 CONDUIT    495.49     0  05:42      1.29    5.23    1.00
  WS02006234WS02006232 CONDUIT    495.45     0  05:42      1.39    1.00    1.00
  WS02006232WS02006231 CONDUIT    495.40     0  05:42      1.29    1.04    1.00
  WS02006231WS02006230 CONDUIT    498.26     0  05:42      1.36    7.56    1.00
  WS02006230WS02006229 CONDUIT    504.96     0  05:43      1.31   11.24    1.00
  WS02006228WS02006109 CONDUIT    915.44     0  03:03      1.82    4.00    1.00
  WS02006116WS02004401 CONDUIT    942.19     0  03:02      1.20    1.30    1.00
  WS02006115WS02006116 CONDUIT    942.35     0  03:02      1.20    1.21    1.00
  WS02006113WS02006111 CONDUIT    917.23     0  03:03      2.58    1.10    1.00
  WS02006112WS02006115 CONDUIT    941.67     0  03:02      1.20    0.56    1.00
  WS02006111WS02006112 CONDUIT    917.70     0  03:03      1.83    0.44    1.00
  WS02006110WS02006113 CONDUIT    916.81     0  03:02      1.82    0.83    1.00
  WS02006109WS02006110 CONDUIT    916.85     0  03:02      1.82    1.76    1.00
  WS02004411WS02004412 CONDUIT    936.43     0  03:03      1.24    1.33    0.92
  WS02004401WS02004402 CONDUIT    942.13     0  03:02      1.20    1.13    1.00
  WS02004413WS02003067 CONDUIT    937.93     0  03:04      1.55    0.40    0.72
  WS02004412WS02004413 CONDUIT    937.74     0  03:04      1.22    0.63    0.95
  WS02004410WS02004411 CONDUIT    936.47     0  03:03      1.22    1.28    0.94
  WS02004409WS02004410 CONDUIT    938.06     0  03:03      1.21    1.21    0.95
  WS02004407WS02004409 CONDUIT    941.82     0  03:02      1.68    0.33    0.68
  WS02004406WS02004407 CONDUIT    942.66     0  03:02      1.61    0.42    0.70
  WS02004405WS02004406 CONDUIT    943.09     0  03:02      1.20    1.86    1.00
  WS02004404WS02004405 CONDUIT    943.22     0  03:02      1.20    9.24    1.00
  WS02004403WS02004404 CONDUIT    942.65     0  03:02      1.20    0.68    1.00
  WS02004402WS02004403 CONDUIT    942.47     0  03:02      1.20    1.35    1.00
  WS02004139WS02001211 CONDUIT    384.50     0  03:16      0.90    0.49    0.64
  WS02004138WS02004139 CONDUIT    396.19     0  00:00      3.65    0.08    0.46
  WS02003067WS02003066 CONDUIT    939.01     0  03:04      1.65    0.30    0.50
  WS02001213WS02003059 CONDUIT    405.25     0  03:15      0.88    0.67    0.87
  WS02001212WS02001213 CONDUIT    400.36     0  03:15      1.32    0.62    0.55
  WS02001211WS02001212 CONDUIT    396.40     0  03:16      0.78    0.30    0.71
  WS02003072WS02003073 CONDUIT   1323.51     0  03:06      1.96    2.86    0.58
  WS02003069WS02003072 CONDUIT   1322.89     0  03:05      1.81    0.64    0.62
  WS02003060WS02003069 CONDUIT   1323.09     0  03:05      2.02    0.52    0.56
  WS02003059WS02003060 CONDUIT    411.19     0  03:16      0.95    0.27    0.77
  HS02004901HS02004770 CONDUIT     37.24     0  03:01      0.10    0.14    0.53
  HS02004876HS02004881 CONDUIT    127.67     0  03:01      1.21    1.36    0.15
  HS02004870HS02004876 CONDUIT    103.13     0  03:01      0.82    0.07    0.18
  HS02004842HS02004848 CONDUIT     16.85     0  03:01      0.07    0.01    0.33
  HS02004837HS02004842 CONDUIT     17.92     0  03:03      0.42    0.01    0.35
  HS02004830HS02004837 CONDUIT     64.66     0  03:01      0.67    0.06    0.14
  HS02004824HS02004830 CONDUIT     64.13     0  03:01      0.62    0.08    0.16
  HS02004817HS02004824 CONDUIT    123.87     0  03:01      0.31    0.06    0.58
  HS02004770HS02004777 CONDUIT    185.03     0  03:01      0.49    0.34    0.54
  HS02004799HS02004480 CONDUIT    444.43     0  03:01      1.07    0.56    0.60
  HS02004792HS02004799 CONDUIT    408.56     0  03:01      1.20    0.25    0.49
  HS02004788HS02004792 CONDUIT    232.98     0  03:02      1.28    0.15    0.26
  HS02004785HS02004788 CONDUIT    181.84     0  03:02      0.91    1.37    0.29
  HS02004777HS02004785 CONDUIT    182.12     0  03:01      0.57    0.22    0.45
  HS02004480HS02004478 CONDUIT    517.49     0  03:01      1.55    2.18    0.48
  HS02004479HS02004480 CONDUIT     77.39     0  03:02      0.30    0.07    0.57
  HS02004862HS02004870 CONDUIT     79.04     0  03:01      0.80    0.09    0.14
  HS02004848HS02004852 CONDUIT     37.85     0  03:01      0.53    0.04    0.10
  HS02004856HS02004862 CONDUIT     54.77     0  03:01      0.59    0.05    0.13
  HS02004852HS02004856 CONDUIT     37.76     0  03:02      0.34    0.04    0.16
  HS02004802HS02004478 CONDUIT    170.19     0  03:04      0.54    0.15    0.48
  HS02004478WS02006287 CONDUIT    677.81     0  03:02      2.11    0.19    0.36
  HS02004817HS02004807 CONDUIT    128.15     0  03:04      0.25    0.08    0.75
  HS02004807HS02004802 CONDUIT    165.29     0  03:04      0.46    0.32    0.53
  YS02001759YS02001757 CONDUIT    622.64     0  02:43      0.79    0.44    1.00
  YS02001762YS02001759 CONDUIT    326.21     0  03:18      0.42    0.38    1.00
  YS02001765YS02001762 CONDUIT    326.21     0  03:18      0.42    0.31    1.00
  YS02001770YS02001767 CONDUIT    326.33     0  03:18      0.42    1.29    1.00
  YS02001774YS02001770 CONDUIT    740.44     0  03:13      0.94    0.47    1.00
  YS02001779YS02001774 CONDUIT    740.46     0  03:13      0.94    0.37    1.00
  YS02001649YS02001757 CONDUIT    874.27     0  02:39      1.11    0.53    1.00
  YS02001767YS02001765 CONDUIT    325.97     0  03:18      0.42    0.41    1.00
  YS02006561YS02001783 CONDUIT   1040.57     0  02:48      2.14    0.54    1.00
  YS02001783YS02001784 CONDUIT   1040.45     0  02:48      2.07    1.43    1.00
  YS02001784YS02001785 CONDUIT   1041.53     0  02:48      2.07    2.42    1.00
  YS02001788YS02001790 CONDUIT   1042.42     0  02:48      2.43    0.77    1.00
  YS02001790YS02001791 CONDUIT   1042.18     0  02:48      2.87    1.13    1.00
  YS02001791YS02001793 CONDUIT   1042.17     0  02:48      5.77    0.45    1.00
  YS02001910YS02001907 CONDUIT    585.26     0  03:02      0.75    0.33    1.00
  YS02001786YS02001788 CONDUIT   1041.89     0  02:48      2.31    2.01    1.00
  YS02001915YS02001910 CONDUIT    585.48     0  03:02      0.75    0.29    1.00
  YS02001918YS02001915 CONDUIT    264.21     0  02:50      0.44    0.15    1.00
  YS02001923YS02001920 CONDUIT    259.93     0  02:50      0.75    0.12    1.00
  YS02001926YS02001923 CONDUIT    239.53     0  02:50      0.86    0.34    0.94
  YS02001929YS02001926 CONDUIT    203.59     0  03:02      0.92    0.10    0.83
  YS02001920YS02001918 CONDUIT    263.00     0  02:50      0.72    0.25    1.00
  YS02001629YS02163301 CONDUIT    206.10     0  02:31      0.26    0.25    1.00
  YS02001619YS02001622 CONDUIT    381.42     0  03:01      0.59    0.56    1.00
  YS02001622YS02001625 CONDUIT    381.16     0  03:01      0.49    0.20    1.00
  YS02001625YS02001629 CONDUIT    196.55     0  02:39      0.25    0.09    1.00
  YS02163301YS02001633 CONDUIT    208.11     0  02:31      0.26    0.20    1.00
  YS02163601YS02164001 CONDUIT    412.82     0  02:39      0.53    0.37    1.00
  YS02164001YS02001641 CONDUIT    412.30     0  02:39      0.52    0.56    1.00
  YS02001641YS02001644 CONDUIT    412.02     0  02:39      0.52    1.33    1.00
  YS02001647YS02001649 CONDUIT    846.67     0  03:16      1.08    0.45    1.00
  YS02006553YS02006556 CONDUIT    708.41     0  03:47      0.90    0.61    1.00
  YS02006556YS02006558 CONDUIT    708.64     0  03:47      0.90    0.56    1.00
  YSB6556YSB1171       CONDUIT     42.87     0  03:02      0.13    0.04    0.82
  YS02001907YS02006553 CONDUIT    707.67     0  03:47      0.79    0.83    1.00
  YS02006558YS02006561 CONDUIT   1040.83     0  02:48      3.68    2.30    1.00
  YS02001633YS02163601 CONDUIT    412.86     0  02:39      0.53    0.43    1.00
  YS02001644YS02001647 CONDUIT    846.67     0  03:16      1.08    0.50    1.00
  YS02001745YS02001748 CONDUIT    600.53     0  02:31      1.45    0.23    0.98
  YS02001748YS02001751 CONDUIT    441.80     0  03:01      1.03    0.22    1.00
  YS02001751YS02001754 CONDUIT    442.20     0  03:01      0.88    0.21    1.00
  YS02001754YS02001757 CONDUIT    441.95     0  03:01      0.56    0.18    1.00
  YS02001882YS02001884 CONDUIT     18.24     0  02:31      0.12    0.02    1.00
  YS02001884YS02001887 CONDUIT     48.06     0  02:30      0.08    0.06    1.00
  YS02001890YS02001895 CONDUIT    517.77     0  03:05      0.66    0.24    1.00
  YS02001895YS02001898 CONDUIT    517.74     0  03:01      0.66    0.90    1.00
  YS02001898YS02001901 CONDUIT    517.70     0  03:01      0.66    0.33    1.00
  YS02001901YS02001904 CONDUIT    517.61     0  03:01      0.66    0.80    1.00
  YS02001904YS02001907 CONDUIT    517.95     0  03:00      0.66    0.18    1.00
  YS02001887YS02001890 CONDUIT    679.73     0  03:01      0.87    1.16    1.00
  YS02001652YS02001649 CONDUIT    500.81     0  03:01      0.64    0.25    1.00
  YS02001655YS02001652 CONDUIT    500.57     0  03:01      0.94    0.24    1.00
  YS02001658YS02001655 CONDUIT    499.96     0  03:01      1.18    0.21    1.00
  YS02001661YS02001658 CONDUIT    581.18     0  02:29      1.52    0.23    1.00
  YS02001664YS02001661 CONDUIT    661.82     0  02:43      1.43    0.21    0.77
  YSB1154YSB6556       CONDUIT     43.27     0  03:01      0.18    0.08    0.73
  YSB1174YSB1171       CONDUIT     36.63     0  03:01      0.11    0.06    0.85
  YSB1171HS02004479    CONDUIT     75.51     0  03:02      0.54    0.05    0.68
  HS02004881HS02006253 CONDUIT    140.49     0  03:01      2.22    0.03    0.54
  YS02001793JiankangQianchi CONDUIT   1042.24     0  02:48     16.74    0.08    1.00
  YS02001757CaochengTiaoxuchi CONDUIT   1677.86     0  02:40      2.17    0.74    1.00
  WSF200WS02003060     CONDUIT    939.95     0  03:04      1.93    0.21    0.44
  1                    CONDUIT   1326.34     0  03:07      3.58    0.46    0.48
  CC-Pump-1            PUMP       200.00     0  05:10              1.00
  CC-Pump-2            PUMP       199.91     0  04:30              1.00
  JK-Pump-1            PUMP       300.00     0  00:00              1.00
  JK-Pump-2            PUMP       683.00     0  00:00              1.00
  XR-Pump-1            PUMP        95.00     0  00:00              1.00
  XR-Pump-2            PUMP        95.00     0  00:00              1.00
  XR-Pump-3            PUMP        95.00     0  00:00              1.00
  XR-Pump-4            PUMP        95.00     0  00:00              1.00
  
  
  ***************************
  Flow Classification Summary
  ***************************
  
  -------------------------------------------------------------------------------------
                      Adjusted    ---------- Fraction of Time in Flow Class ---------- 
                       /Actual         Up    Down  Sub   Sup   Up    Down  Norm  Inlet 
  Conduit               Length    Dry  Dry   Dry   Crit  Crit  Crit  Crit  Ltd   Ctrl  
  -------------------------------------------------------------------------------------
  WS02003066WSF200        1.00   0.01  0.07  0.00  0.00  0.91  0.00  0.00  0.55  0.00
  WS02006287WS02006284    1.00   0.03  0.02  0.00  0.63  0.32  0.00  0.00  0.65  0.00
  WS02006284WS02006280    1.00   0.04  0.00  0.00  0.00  0.00  0.00  0.96  0.00  0.00
  WS02006280WS02006229    1.00   0.04  0.00  0.00  0.01  0.02  0.00  0.93  0.01  0.00
  WS02006229WS02006228    1.00   0.00  0.00  0.00  0.99  0.00  0.00  0.00  0.00  0.00
  WS02006256WS02006235    1.00   0.00  0.00  0.00  1.00  0.00  0.00  0.00  0.00  0.00
  WS02006253WS02006251    1.00   0.02  0.02  0.00  0.96  0.00  0.01  0.00  0.00  0.00
  WS02006252WS02006251    1.00   0.23  0.07  0.00  0.03  0.00  0.67  0.00  0.00  0.00
  WS02006251WS02006249    1.00   0.00  0.00  0.00  1.00  0.00  0.00  0.00  0.42  0.00
  WS02006249WS02006248    1.00   0.00  0.01  0.00  0.83  0.00  0.16  0.00  0.00  0.00
  WS02006248WS02006247    1.00   0.01  0.00  0.00  0.98  0.00  0.00  0.02  0.21  0.00
  WS02006247WS02006245    1.00   0.01  0.00  0.00  0.95  0.00  0.00  0.04  0.00  0.00
  WS02006245WS02006243    1.00   0.00  0.00  0.00  0.90  0.00  0.00  0.09  0.02  0.00
  WS02006243WS02006242    1.00   0.00  0.00  0.00  1.00  0.00  0.00  0.00  0.29  0.00
  WS02006242WS02006240    1.00   0.00  0.00  0.00  0.98  0.00  0.01  0.00  0.00  0.00
  WS02006240WS02006239    1.00   0.00  0.00  0.00  0.90  0.00  0.00  0.10  0.02  0.00
  WS02006239WS02006238    1.00   0.00  0.00  0.00  1.00  0.00  0.00  0.00  0.14  0.00
  WS02006238WS02006235    1.00   0.00  0.00  0.00  1.00  0.00  0.00  0.00  0.00  0.00
  WS02006235WS02006234    1.00   0.00  0.00  0.00  0.93  0.00  0.07  0.00  0.00  0.00
  WS02006234WS02006232    1.00   0.00  0.00  0.00  1.00  0.00  0.00  0.00  0.11  0.00
  WS02006232WS02006231    1.00   0.00  0.00  0.00  1.00  0.00  0.00  0.00  0.00  0.00
  WS02006231WS02006230    1.00   0.00  0.00  0.00  0.54  0.00  0.46  0.00  0.00  0.00
  WS02006230WS02006229    1.00   0.00  0.00  0.00  0.99  0.00  0.00  0.01  0.01  0.00
  WS02006228WS02006109    1.00   0.00  0.00  0.00  1.00  0.00  0.00  0.00  0.00  0.00
  WS02006116WS02004401    1.00   0.01  0.00  0.00  0.99  0.00  0.00  0.00  0.01  0.00
  WS02006115WS02006116    1.00   0.01  0.00  0.00  0.97  0.00  0.00  0.02  0.01  0.00
  WS02006113WS02006111    1.00   0.01  0.00  0.00  0.04  0.95  0.00  0.00  0.20  0.00
  WS02006112WS02006115    1.00   0.01  0.00  0.00  0.99  0.00  0.00  0.00  0.00  0.00
  WS02006111WS02006112    1.00   0.01  0.00  0.00  0.99  0.00  0.00  0.00  0.90  0.00
  WS02006110WS02006113    1.00   0.00  0.00  0.00  0.99  0.00  0.00  0.00  0.00  0.00
  WS02006109WS02006110    1.00   0.00  0.00  0.00  0.99  0.00  0.00  0.00  0.00  0.00
  WS02004411WS02004412    1.00   0.06  0.00  0.00  0.94  0.00  0.00  0.00  0.00  0.00
  WS02004401WS02004402    1.00   0.01  0.00  0.00  0.99  0.00  0.00  0.00  0.01  0.00
  WS02004413WS02003067    1.00   0.07  0.01  0.00  0.00  0.00  0.92  0.00  0.00  0.00
  WS02004412WS02004413    1.00   0.07  0.00  0.00  0.93  0.00  0.00  0.00  0.00  0.00
  WS02004410WS02004411    1.00   0.06  0.00  0.00  0.94  0.00  0.00  0.00  0.00  0.00
  WS02004409WS02004410    1.00   0.06  0.00  0.00  0.94  0.00  0.00  0.00  0.00  0.00
  WS02004407WS02004409    1.00   0.06  0.00  0.00  0.93  0.01  0.00  0.00  0.80  0.00
  WS02004406WS02004407    1.00   0.00  0.06  0.00  0.94  0.00  0.00  0.00  0.00  0.00
  WS02004405WS02004406    1.00   0.00  0.00  0.00  1.00  0.00  0.00  0.00  0.02  0.00
  WS02004404WS02004405    1.00   0.00  0.00  0.00  1.00  0.00  0.00  0.00  0.00  0.00
  WS02004403WS02004404    1.00   0.00  0.01  0.00  0.99  0.00  0.00  0.00  0.02  0.00
  WS02004402WS02004403    1.00   0.01  0.00  0.00  0.99  0.00  0.00  0.00  0.00  0.00
  WS02004139WS02001211    1.00   0.00  0.00  0.00  1.00  0.00  0.00  0.00  0.00  0.00
  WS02004138WS02004139    1.00   0.00  0.00  0.00  1.00  0.00  0.00  0.00  1.00  0.00
  WS02003067WS02003066    1.00   0.08  0.00  0.00  0.92  0.00  0.00  0.00  0.00  0.00
  WS02001213WS02003059    1.00   0.00  0.00  0.00  1.00  0.00  0.00  0.00  0.00  0.00
  WS02001212WS02001213    1.00   0.00  0.00  0.00  0.89  0.00  0.11  0.00  0.00  0.00
  WS02001211WS02001212    1.00   0.00  0.00  0.00  1.00  0.00  0.00  0.00  0.00  0.00
  WS02003072WS02003073    1.00   0.00  0.00  0.00  0.00  0.00  0.00  1.00  0.00  0.00
  WS02003069WS02003072    1.00   0.00  0.00  0.00  1.00  0.00  0.00  0.00  0.13  0.00
  WS02003060WS02003069    1.00   0.00  0.00  0.00  0.99  0.01  0.00  0.00  0.09  0.00
  WS02003059WS02003060    1.00   0.00  0.00  0.00  1.00  0.00  0.00  0.00  0.00  0.00
  HS02004901HS02004770    1.00   0.04  0.00  0.00  0.96  0.00  0.00  0.00  0.00  0.00
  HS02004876HS02004881    1.00   0.01  0.00  0.00  0.90  0.09  0.00  0.00  0.00  0.00
  HS02004870HS02004876    1.00   0.00  0.00  0.00  0.99  0.00  0.00  0.00  0.95  0.00
  HS02004842HS02004848    1.00   0.00  0.04  0.00  0.96  0.00  0.00  0.00  0.54  0.00
  HS02004837HS02004842    1.00   0.00  0.00  0.00  1.00  0.00  0.00  0.00  0.11  0.00
  HS02004830HS02004837    1.00   0.00  0.00  0.00  1.00  0.00  0.00  0.00  0.99  0.00
  HS02004824HS02004830    1.00   0.00  0.00  0.00  1.00  0.00  0.00  0.00  0.01  0.00
  HS02004817HS02004824    1.00   0.00  0.00  0.00  1.00  0.00  0.00  0.00  0.97  0.00
  HS02004770HS02004777    1.00   0.00  0.04  0.00  0.96  0.00  0.00  0.00  0.03  0.00
  HS02004799HS02004480    1.00   0.00  0.01  0.00  0.95  0.00  0.04  0.00  0.00  0.00
  HS02004792HS02004799    1.00   0.00  0.00  0.00  1.00  0.00  0.00  0.00  0.98  0.00
  HS02004788HS02004792    1.00   0.00  0.00  0.00  1.00  0.00  0.00  0.00  0.98  0.00
  HS02004785HS02004788    1.00   0.00  0.00  0.00  1.00  0.00  0.00  0.00  0.00  0.00
  HS02004777HS02004785    1.00   0.00  0.00  0.00  1.00  0.00  0.00  0.00  0.12  0.00
  HS02004480HS02004478    1.00   0.04  0.00  0.00  0.68  0.00  0.00  0.28  0.00  0.00
  HS02004479HS02004480    1.00   0.01  0.00  0.00  0.99  0.00  0.00  0.00  0.12  0.00
  HS02004862HS02004870    1.00   0.00  0.00  0.00  1.00  0.00  0.00  0.00  0.04  0.00
  HS02004848HS02004852    1.00   0.04  0.00  0.00  0.96  0.00  0.00  0.00  0.64  0.00
  HS02004856HS02004862    1.00   0.00  0.05  0.00  0.95  0.00  0.00  0.00  0.83  0.00
  HS02004852HS02004856    1.00   0.04  0.00  0.00  0.96  0.00  0.00  0.00  0.81  0.00
  HS02004802HS02004478    1.00   0.04  0.00  0.00  0.96  0.00  0.00  0.00  0.02  0.00
  HS02004478WS02006287    1.00   0.05  0.00  0.00  0.73  0.21  0.00  0.00  0.65  0.00
  HS02004817HS02004807    1.00   0.00  0.04  0.00  0.96  0.00  0.00  0.00  0.01  0.00
  HS02004807HS02004802    1.00   0.04  0.00  0.00  0.95  0.00  0.00  0.01  0.00  0.00
  YS02001759YS02001757    1.00   0.00  0.00  0.00  1.00  0.00  0.00  0.00  0.16  0.00
  YS02001762YS02001759    1.00   0.00  0.00  0.00  1.00  0.00  0.00  0.00  0.03  0.00
  YS02001765YS02001762    1.00   0.00  0.00  0.00  1.00  0.00  0.00  0.00  0.14  0.00
  YS02001770YS02001767    1.00   0.00  0.00  0.00  1.00  0.00  0.00  0.00  0.00  0.00
  YS02001774YS02001770    1.00   0.00  0.04  0.00  0.96  0.00  0.00  0.00  0.03  0.00
  YS02001779YS02001774    1.00   0.00  0.00  0.00  1.00  0.00  0.00  0.00  0.19  0.00
  YS02001649YS02001757    1.00   0.00  0.00  0.00  1.00  0.00  0.00  0.00  0.16  0.00
  YS02001767YS02001765    1.00   0.00  0.00  0.00  1.00  0.00  0.00  0.00  0.00  0.00
  YS02006561YS02001783    1.00   0.06  0.00  0.00  0.35  0.59  0.00  0.00  0.45  0.00
  YS02001783YS02001784    1.00   0.00  0.06  0.00  0.94  0.00  0.00  0.00  0.00  0.00
  YS02001784YS02001785    1.00   0.00  0.00  0.00  1.00  0.00  0.00  0.00  0.18  0.00
  YS02001788YS02001790    1.00   0.00  0.00  0.00  0.42  0.58  0.00  0.00  0.34  0.00
  YS02001790YS02001791    1.00   0.00  0.00  0.00  0.38  0.62  0.00  0.00  0.43  0.00
  YS02001791YS02001793    1.00   0.00  0.00  0.00  0.40  0.60  0.00  0.00  0.02  0.00
  YS02001910YS02001907    1.00   0.00  0.00  0.00  0.99  0.00  0.00  0.01  0.12  0.00
  YS02001786YS02001788    1.00   0.00  0.00  0.00  0.41  0.59  0.00  0.00  0.00  0.00
  YS02001915YS02001910    1.00   0.00  0.00  0.00  0.99  0.01  0.00  0.00  0.16  0.00
  YS02001918YS02001915    1.00   0.00  0.00  0.00  0.99  0.01  0.00  0.00  0.54  0.00
  YS02001923YS02001920    1.00   0.00  0.00  0.00  1.00  0.00  0.00  0.00  0.82  0.00
  YS02001926YS02001923    1.00   0.00  0.02  0.00  0.14  0.00  0.83  0.00  0.00  0.00
  YS02001929YS02001926    1.00   0.00  0.04  0.00  0.96  0.00  0.00  0.00  0.74  0.00
  YS02001920YS02001918    1.00   0.00  0.00  0.00  1.00  0.00  0.00  0.00  0.00  0.00
  YS02001629YS02163301    1.00   0.05  0.00  0.00  0.95  0.00  0.00  0.00  0.00  0.00
  YS02001619YS02001622    1.00   0.04  0.00  0.00  0.96  0.00  0.00  0.00  0.00  0.00
  YS02001622YS02001625    1.00   0.04  0.00  0.00  0.96  0.00  0.00  0.00  0.05  0.00
  YS02001625YS02001629    1.00   0.04  0.02  0.00  0.92  0.00  0.02  0.00  0.00  0.00
  YS02163301YS02001633    1.00   0.00  0.05  0.00  0.95  0.00  0.00  0.00  0.00  0.00
  YS02163601YS02164001    1.00   0.00  0.03  0.00  0.97  0.00  0.00  0.00  0.00  0.00
  YS02164001YS02001641    1.00   0.00  0.02  0.00  0.97  0.00  0.00  0.00  0.06  0.00
  YS02001641YS02001644    1.00   0.00  0.00  0.00  1.00  0.00  0.00  0.00  0.00  0.00
  YS02001647YS02001649    1.00   0.00  0.06  0.00  0.94  0.00  0.00  0.00  0.01  0.00
  YS02006553YS02006556    1.00   0.01  0.00  0.00  0.99  0.00  0.00  0.00  0.03  0.00
  YS02006556YS02006558    1.00   0.00  0.00  0.00  1.00  0.00  0.00  0.00  0.00  0.00
  YSB6556YSB1171          1.00   0.01  0.03  0.00  0.96  0.00  0.00  0.00  0.00  0.00
  YS02001907YS02006553    1.00   0.00  0.01  0.00  0.99  0.00  0.00  0.00  0.00  0.00
  YS02006558YS02006561    1.00   0.06  0.00  0.00  0.15  0.79  0.00  0.00  0.48  0.00
  YS02001633YS02163601    1.00   0.00  0.00  0.00  1.00  0.00  0.00  0.00  0.15  0.00
  YS02001644YS02001647    1.00   0.00  0.06  0.00  0.94  0.00  0.00  0.00  0.00  0.00
  YS02001745YS02001748    1.00   0.00  0.00  0.00  0.89  0.01  0.00  0.11  0.04  0.00
  YS02001748YS02001751    1.00   0.00  0.00  0.00  0.96  0.04  0.00  0.00  0.15  0.00
  YS02001751YS02001754    1.00   0.00  0.00  0.00  0.93  0.00  0.00  0.07  0.02  0.00
  YS02001754YS02001757    1.00   0.00  0.00  0.00  1.00  0.00  0.00  0.00  0.18  0.00
  YS02001882YS02001884    1.00   0.05  0.00  0.00  0.95  0.00  0.00  0.00  0.00  0.00
  YS02001884YS02001887    1.00   0.02  0.02  0.00  0.96  0.00  0.00  0.00  0.00  0.00
  YS02001890YS02001895    1.00   0.00  0.05  0.00  0.95  0.00  0.00  0.00  0.00  0.00
  YS02001895YS02001898    1.00   0.05  0.00  0.00  0.93  0.00  0.01  0.00  0.00  0.00
  YS02001898YS02001901    1.00   0.05  0.00  0.00  0.95  0.00  0.00  0.00  0.01  0.00
  YS02001901YS02001904    1.00   0.05  0.00  0.00  0.95  0.00  0.00  0.00  0.00  0.00
  YS02001904YS02001907    1.00   0.00  0.05  0.00  0.95  0.00  0.00  0.00  0.00  0.00
  YS02001887YS02001890    1.00   0.00  0.00  0.00  0.99  0.00  0.01  0.00  0.00  0.00
  YS02001652YS02001649    1.00   0.00  0.00  0.00  1.00  0.00  0.00  0.00  0.17  0.00
  YS02001655YS02001652    1.00   0.00  0.00  0.00  0.93  0.00  0.00  0.07  0.02  0.00
  YS02001658YS02001655    1.00   0.00  0.05  0.00  0.92  0.04  0.00  0.00  0.10  0.00
  YS02001661YS02001658    1.00   0.05  0.00  0.00  0.89  0.07  0.00  0.00  0.11  0.00
  YS02001664YS02001661    1.00   0.04  0.00  0.00  0.90  0.05  0.00  0.00  0.20  0.00
  YSB1154YSB6556          1.00   0.04  0.00  0.00  0.96  0.00  0.00  0.00  0.02  0.00
  YSB1174YSB1171          1.00   0.02  0.01  0.00  0.97  0.00  0.00  0.00  0.00  0.00
  YSB1171HS02004479       1.00   0.01  0.00  0.00  0.98  0.00  0.00  0.00  0.10  0.00
  HS02004881HS02006253    1.00   0.02  0.00  0.00  0.42  0.02  0.00  0.54  0.25  0.00
  YS02001793JiankangQianchi    1.00   0.00  0.00  0.00  0.62  0.38  0.00  0.00  0.34  0.00
  YS02001757CaochengTiaoxuchi    1.00   0.00  0.08  0.00  0.92  0.00  0.00  0.00  0.00  0.00
  WSF200WS02003060        1.00   0.00  0.01  0.00  0.99  0.00  0.00  0.00  0.57  0.00
  1                       1.00   0.00  0.00  0.00  0.00  1.00  0.00  0.00  0.52  0.00
  
  
  *************************
  Conduit Surcharge Summary
  *************************
  
  ----------------------------------------------------------------------------
                                                           Hours        Hours 
                         --------- Hours Full --------   Above Full   Capacity
  Conduit                Both Ends  Upstream  Dnstream   Normal Flow   Limited
  ----------------------------------------------------------------------------
  WS02006229WS02006228        2.35      2.46      2.35      3.72         2.35
  WS02006256WS02006235        5.17      5.17      6.66      4.27         0.01
  WS02006253WS02006251        0.39      0.39      0.44      0.01         0.03
  WS02006252WS02006251        0.20      0.20      0.62      0.43         0.01
  WS02006251WS02006249        0.40      0.40      0.49      0.11         0.02
  WS02006249WS02006248        0.43      0.43      0.49      0.96         0.01
  WS02006248WS02006247        0.49      0.49      0.61      0.01         0.01
  WS02006247WS02006245        0.62      0.63      0.62      1.46         0.41
  WS02006245WS02006243        0.64      0.65      0.74      0.03         0.01
  WS02006243WS02006242        0.77      0.77      1.03      0.01         0.01
  WS02006242WS02006240        1.00      1.00      1.12      0.34         0.01
  WS02006240WS02006239        1.03      1.03      1.13      0.03         0.02
  WS02006239WS02006238        1.36      1.36      1.56      0.03         0.02
  WS02006238WS02006235        1.55      1.55      1.68      0.01         0.02
  WS02006235WS02006234        1.20      1.20      1.50      5.03         0.01
  WS02006234WS02006232        1.36      1.36      1.95      0.01         0.04
  WS02006232WS02006231        0.84      0.84      1.95      0.14         0.01
  WS02006231WS02006230        0.59      0.59      0.91      5.28         0.01
  WS02006230WS02006229        2.95      3.34      2.95      5.63         2.95
[...]
  YS02001770YS02001767        5.69      5.69      5.69      0.62         0.53
  YS02001774YS02001770        5.67      5.67      5.74      0.01         0.01
  YS02001779YS02001774        5.56      5.56      5.74      0.01         0.01
  YS02001649YS02001757        5.75      5.75      5.86      0.01         0.01
  YS02001767YS02001765        5.69      5.69      5.72      0.01         0.01
  YS02006561YS02001783        0.93      0.93      1.40      0.01         0.01
  YS02001783YS02001784        1.38      1.40      1.38      1.47         1.29
  YS02001784YS02001785        1.32      1.38      1.32      2.50         1.32
  YS02001788YS02001790        1.16      1.16      2.31      0.01         0.01
  YS02001790YS02001791        2.30      2.31      2.40      1.18         1.16
  YS02001791YS02001793        2.40      2.40      2.73      0.01         0.01
  YS02001910YS02001907        1.29      1.29      1.91      0.01         0.01
  YS02001786YS02001788        1.16      1.32      1.16      2.11         1.16
  YS02001915YS02001910        1.11      1.11      1.29      0.01         0.01
  YS02001918YS02001915        0.90      0.90      1.11      0.01         0.01
  YS02001923YS02001920        0.74      0.74      0.93      0.01         0.01
  YS02001920YS02001918        0.90      0.90      0.93      0.01         0.01
  YS02001629YS02163301        5.67      5.67      5.69      0.01         0.01
  YS02001619YS02001622        5.37      5.37      5.41      0.01         0.01
  YS02001622YS02001625        5.41      5.41      5.64      0.01         0.01
  YS02001625YS02001629        5.38      5.38      5.64      0.01         0.01
  YS02163301YS02001633        5.69      5.69      5.72      0.01         0.01
  YS02163601YS02164001        5.72      5.72      5.75      0.01         0.01
  YS02164001YS02001641        5.72      5.72      5.73      0.01         0.03
  YS02001641YS02001644        5.72      5.73      5.73      1.72         1.85
  YS02001647YS02001649        5.62      5.62      5.75      0.01         0.01
  YS02006553YS02006556        1.52      1.52      2.00      0.01         0.01
  YS02006556YS02006558        1.65      1.65      2.07      0.01         0.01
  YSB6556YSB1171              0.01      0.01      0.07      0.01         0.01
  YS02001907YS02006553        2.53      2.53      2.80      0.01         0.01
  YS02006558YS02006561        1.06      1.48      1.06      2.36         1.06
  YS02001633YS02163601        5.71      5.71      5.75      0.01         0.01
  YS02001644YS02001647        5.62      5.62      5.73      0.01         0.01
  YS02001745YS02001748        0.01      0.01      5.23      0.01         0.01
  YS02001748YS02001751        5.27      5.27      5.36      0.01         0.01
  YS02001751YS02001754        5.36      5.36      5.58      0.01         0.01
  YS02001754YS02001757        5.61      5.61      5.86      0.01         0.01
  YS02001882YS02001884        1.13      1.13      1.16      0.01         0.01
  YS02001884YS02001887        1.21      1.21      1.23      0.01         0.01
  YS02001890YS02001895        1.09      1.09      1.31      0.01         0.01
  YS02001895YS02001898        1.08      1.08      1.09      0.01         0.01
  YS02001898YS02001901        1.10      1.10      1.20      0.01         0.01
  YS02001901YS02001904        1.18      1.18      1.20      0.01         0.01
  YS02001904YS02001907        1.18      1.18      2.01      0.01         0.01
  YS02001887YS02001890        1.25      1.25      1.28      0.16         0.01
  YS02001652YS02001649        5.63      5.63      5.75      0.01         0.01
  YS02001655YS02001652        5.39      5.39      5.61      0.01         0.01
  YS02001658YS02001655        5.25      5.25      5.39      0.01         0.01
  YS02001661YS02001658        0.06      0.06      5.25      0.01         0.01
  YS02001664YS02001661        0.01      0.01      1.14      0.01         0.01
  HS02004881HS02006253        0.01      0.01      0.09      0.01         0.01
  YS02001793JiankangQianchi        2.65      2.65      3.97      0.01         0.01
  YS02001757CaochengTiaoxuchi        5.11      5.11      5.86      0.01         0.01
  
  
  ***************
  Pumping Summary
  ***************
  
  ---------------------------------------------------------------------------------------------------------
                                                  Min       Avg       Max     Total     Power    % Time Off
                        Percent   Number of      Flow      Flow      Flow    Volume     Usage    Pump Curve
  Pump                 Utilized   Start-Ups       LPS       LPS       LPS  10^6 ltr     Kw-hr    Low   High
  ---------------------------------------------------------------------------------------------------------
  CC-Pump-1               27.64           4      0.00    117.64    200.00     0.840      0.65    0.0    0.0
  CC-Pump-2               17.01           4      0.00    107.45    199.91     0.480      0.45    0.0    0.0
  JK-Pump-1               59.57           5      0.00    226.30    300.00     3.654     55.42    0.0    0.0
  JK-Pump-2               59.57           5      0.00    418.36    683.00     7.015     96.16    0.0   95.7
  XR-Pump-1              100.00           1      0.00     95.00     95.00     2.679     27.56    0.0    0.0
  XR-Pump-2               95.74           3      0.00     92.96     95.00     2.451     22.65    0.0    0.0
  XR-Pump-3               95.74           3      0.00     92.21     95.00     2.394     21.38    0.0    0.0
  XR-Pump-4               95.74           3      0.00     92.21     95.00     2.394     21.38    0.0    0.0
  
  
  ***************************
  Link Pollutant Load Summary
  ***************************
  
  ------------------------------------------------------------------------------------------
                                 COD            SS            TN            TP         NH4-N
  Link                            kg            kg            kg            kg            kg
  ------------------------------------------------------------------------------------------
  WS02003066WSF200           710.375      1336.556        19.272         1.731        10.241
  WS02006287WS02006284       319.458       608.073        10.313         1.015         5.678
  WS02006284WS02006280       319.938       608.860        10.359         1.020         5.706
  WS02006280WS02006229       319.895       608.775        10.356         1.020         5.705
  WS02006229WS02006228       699.924      1317.663        18.580         1.645         9.819
  WS02006256WS02006235       215.874       401.263         4.718         0.366         2.382
  WS02006253WS02006251        62.494       122.675         1.374         0.103         0.681
  WS02006252WS02006251       114.797       209.028         2.448         0.181         1.213
  WS02006251WS02006249       169.059       316.763         3.647         0.272         1.808
  WS02006249WS02006248       166.754       312.044         3.599         0.268         1.784
  WS02006248WS02006247       166.823       312.116         3.601         0.268         1.785
  WS02006247WS02006245       166.868       312.201         3.600         0.268         1.785
  WS02006245WS02006243       166.667       311.873         3.589         0.267         1.778
  WS02006243WS02006242       167.388       313.135         3.607         0.268         1.787
  WS02006242WS02006240       168.000       314.085         3.631         0.270         1.800
  WS02006240WS02006239       169.429       316.477         3.683         0.275         1.829
  WS02006239WS02006238       171.981       320.649         3.784         0.286         1.888
  WS02006238WS02006235       173.547       323.194         3.841         0.291         1.919
  WS02006235WS02006234       379.620       707.908         8.236         0.627         4.123
  WS02006234WS02006232       380.073       708.710         8.251         0.629         4.132
  WS02006232WS02006231       379.842       708.295         8.244         0.628         4.128
  WS02006231WS02006230       379.551       707.774         8.238         0.628         4.125
  WS02006230WS02006229       380.175       709.042         8.244         0.628         4.127
  WS02006228WS02006109       700.046      1317.884        18.576         1.645         9.816
  WS02006116WS02004401       718.750      1351.559        19.495         1.750        10.358
  WS02006115WS02006116       719.170      1352.288        19.511         1.752        10.367
  WS02006113WS02006111       707.844      1330.265        19.336         1.740        10.291
  WS02006112WS02006115       719.718      1353.156        19.547         1.756        10.389
  WS02006111WS02006112       708.038      1330.711        19.335         1.739        10.290
  WS02006110WS02006113       708.179      1330.854        19.358         1.742        10.304
  WS02006109WS02006110       708.642      1331.613        19.397         1.747        10.328
  WS02004411WS02004412       713.572      1342.083        19.398         1.744        10.312
  WS02004401WS02004402       718.122      1350.513        19.462         1.746        10.338
  WS02004413WS02003067       710.996      1337.753        19.283         1.731        10.246
  WS02004412WS02004413       712.588      1340.358        19.368         1.741        10.296
  WS02004410WS02004411       714.371      1343.530        19.419         1.746        10.324
  WS02004409WS02004410       715.173      1344.942        19.447         1.748        10.339
  WS02004407WS02004409       715.756      1346.032        19.457         1.749        10.344
  WS02004406WS02004407       715.933      1346.457        19.450         1.748        10.339
  WS02004405WS02004406       717.306      1348.819        19.523         1.756        10.382
  WS02004404WS02004405       717.639      1349.547        19.500         1.752        10.365
  WS02004403WS02004404       716.951      1348.503        19.410         1.741        10.309
  WS02004402WS02004403       717.573      1349.547        19.441         1.744        10.327
  WS02004139WS02001211      1382.597      2295.585       112.247        13.702        69.190
  WS02004138WS02004139      1388.782      2305.923       112.723        13.759        69.482
  WS02003067WS02003066       710.594      1336.940        19.280         1.732        10.245
  WS02001213WS02003059      1415.879      2347.880       115.697        14.137        71.358
  WS02001212WS02001213      1424.805      2362.679       116.419        14.225        71.803
  WS02001211WS02001212      1426.935      2366.159       116.602        14.248        71.917
  WS02003072WS02003073      2226.472      3843.675       144.935        17.119        87.842
  WS02003069WS02003072      2231.313      3851.507       145.338        17.168        88.091
  WS02003060WS02003069      2234.056      3856.204       145.504        17.188        88.191
  WS02003059WS02003060      1412.944      2342.901       115.492        14.113        71.233
  HS02004901HS02004770        13.093        25.472         0.248         0.019         0.116
  HS02004876HS02004881        45.514        90.344         0.999         0.073         0.491
  HS02004870HS02004876        34.381        68.103         0.798         0.060         0.395
  HS02004842HS02004848         6.457        12.344         0.134         0.009         0.062
  HS02004837HS02004842        11.055        19.635         0.603         0.068         0.356
  HS02004830HS02004837        70.295       122.721         4.643         0.552         2.826
  HS02004824HS02004830        71.065       123.975         4.715         0.561         2.871
  HS02004817HS02004824        97.159       176.398         5.254         0.596         3.134
  HS02004770HS02004777        49.660        97.708         1.021         0.069         0.472
  HS02004799HS02004480       162.316       310.818         4.263         0.379         2.209
  HS02004792HS02004799       147.268       280.109         4.028         0.367         2.105
  HS02004788HS02004792        82.814       157.679         2.666         0.255         1.440
  HS02004785HS02004788        51.119       100.044         1.172         0.089         0.567
  HS02004777HS02004785        50.445        98.940         1.112         0.081         0.530
  HS02004480HS02004478       204.804       395.151         4.971         0.429         2.543
  HS02004479HS02004480        46.122        90.104         1.036         0.091         0.538
  HS02004862HS02004870        25.799        50.338         0.628         0.050         0.314
  HS02004848HS02004852        10.251        19.884         0.210         0.014         0.097
  HS02004856HS02004862        17.524        34.749         0.350         0.023         0.164
  HS02004852HS02004856        10.255        19.889         0.210         0.014         0.097
  HS02004802HS02004478       115.334       214.040         5.397         0.592         3.168
  HS02004478WS02006287       319.669       608.438        10.330         1.017         5.688
  HS02004817HS02004807        95.854       174.306         5.129         0.580         3.057
  HS02004807HS02004802       115.592       214.443         5.429         0.596         3.189
  YS02001759YS02001757       288.296       528.068         5.782         0.403         2.829
  YS02001762YS02001759       205.488       379.975         4.212         0.297         2.073
  YS02001765YS02001762       206.945       383.554         4.259         0.301         2.099
  YS02001770YS02001767       210.576       392.780         4.181         0.284         2.033
  YS02001774YS02001770       327.436       632.431         6.303         0.422         3.048
  YS02001779YS02001774       326.874       631.324         6.396         0.436         3.112
  YS02001649YS02001757       409.997       747.227         8.286         0.567         3.999
  YS02001767YS02001765       208.917       388.086         4.308         0.305         2.124
  YS02006561YS02001783      1026.970      1903.987        21.519         1.606        10.708
  YS02001783YS02001784      1026.917      1903.936        21.516         1.606        10.706
  YS02001784YS02001785      1034.299      1915.790        22.230         1.695        11.152
  YS02001788YS02001790      1034.981      1916.943        22.303         1.704        11.199
  YS02001790YS02001791      1036.045      1918.681        22.404         1.717        11.262
  YS02001791YS02001793      1036.045      1918.704        22.401         1.717        11.260
  YS02001910YS02001907       391.384       721.811         9.397         0.719         4.815
  YS02001786YS02001788      1034.552      1916.232        22.258         1.699        11.170
  YS02001915YS02001910       391.382       721.787         9.347         0.712         4.782
  YS02001918YS02001915       186.132       328.209         5.131         0.467         2.764
  YS02001923YS02001920       165.896       295.632         3.175         0.223         1.541
  YS02001926YS02001923       164.605       293.452         3.102         0.214         1.497
  YS02001929YS02001926       164.218       292.803         3.066         0.210         1.475
  YS02001920YS02001918       185.739       327.357         5.097         0.463         2.743
  YS02001629YS02163301        96.135       169.998         2.029         0.131         0.946
  YS02001619YS02001622       175.878       321.144         3.602         0.236         1.684
  YS02001622YS02001625       174.689       319.256         3.573         0.234         1.671
  YS02001625YS02001629        97.225       171.780         2.054         0.132         0.958
  YS02163301YS02001633        96.499       170.873         2.032         0.132         0.949
  YS02163601YS02164001       405.788       733.285         7.900         0.562         3.784
  YS02164001YS02001641       405.263       732.401         7.879         0.560         3.773
  YS02001641YS02001644       405.335       732.447         7.875         0.560         3.770
  YS02001647YS02001649       522.042       961.151        10.444         0.721         5.004
  YS02006553YS02006556       692.700      1273.729        14.887         1.140         7.492
  YS02006556YS02006558       692.811      1273.933        14.861         1.136         7.474
  YSB6556YSB1171              26.520        51.964         0.537         0.045         0.272
  YS02001907YS02006553       692.691      1273.727        14.893         1.141         7.496
  YS02006558YS02006561      1026.911      1903.859        21.518         1.606        10.707
  YS02001633YS02163601       406.497       734.382         7.880         0.558         3.768
  YS02001644YS02001647       528.297       972.372        10.538         0.728         5.046
  YS02001745YS02001748       251.388       469.639         5.631         0.397         2.816
  YS02001748YS02001751       248.725       464.738         5.624         0.401         2.821
  YS02001751YS02001754       247.870       463.318         5.621         0.402         2.823
  YS02001754YS02001757       248.602       464.410         5.784         0.424         2.929
  YS02001882YS02001884         3.177         5.493         0.064         0.005         0.032
  YS02001884YS02001887         7.164        12.672         0.141         0.011         0.070
  YS02001890YS02001895       451.157       846.794         8.305         0.625         4.051
  YS02001895YS02001898       451.056       846.699         8.300         0.624         4.048
  YS02001898YS02001901       450.934       846.507         8.297         0.624         4.047
  YS02001901YS02001904       450.863       846.451         8.305         0.625         4.052
  YS02001904YS02001907       451.186       846.986         8.360         0.632         4.087
  YS02001887YS02001890       468.405       881.008         8.648         0.653         4.224
  YS02001652YS02001649       210.190       389.626         4.240         0.305         1.987
  YS02001655YS02001652       210.807       390.623         4.256         0.306         1.995
  YS02001658YS02001655       210.349       389.884         4.171         0.294         1.939
  YS02001661YS02001658       213.560       395.578         4.237         0.299         1.970
  YS02001664YS02001661       221.078       407.383         4.415         0.311         2.051
  YSB1154YSB6556              26.083        51.267         0.486         0.038         0.239
  YSB1174YSB1171              18.020        35.560         0.361         0.029         0.180
  YSB1171HS02004479           46.087        90.049         1.039         0.092         0.540
  HS02004881HS02006253        51.426       102.408         1.108         0.080         0.544
  YS02001793JiankangQianchi      1036.699      1919.840        22.432         1.720        11.278
  YS02001757CaochengTiaoxuchi       504.516       913.778        10.796         0.791         5.342
  WSF200WS02003060           710.301      1336.314        19.287         1.733        10.251
  1                         2231.810      3851.147       145.679        17.215        88.316
  CC-Pump-1                   73.025       133.007         1.552         0.115         0.768
  CC-Pump-2                   41.351        75.229         0.881         0.065         0.436
  JK-Pump-1                  253.788       477.888         5.281         0.398         2.632
  JK-Pump-2                  577.779      1087.971        12.022         0.906         5.991
  XR-Pump-1                  391.131       646.824        32.375         3.964        19.990
  XR-Pump-2                  342.764       569.439        27.746         3.385        17.098
  XR-Pump-3                  329.250       547.818        26.449         3.223        16.288
  XR-Pump-4                  329.250       547.818        26.449         3.223        16.288
  

  Analysis begun on:  Thu Jul 15 10:28:07 2021
  Analysis ended on:  Thu Jul 15 10:28:09 2021
  Total elapsed time: 00:00:02